
*** ChampSim Multicore Out-of-Order Simulator ***

Warmup Instructions: 55000000
Simulation Instructions: 55000000
Number of CPUs: 1
LLC sets: 2048
LLC ways: 16
Off-chip DRAM Size: 4096 MB Channels: 1 Width: 64-bit Data Rate: 6400 MT/s
CPU 0 runs tracer/pull_u18_k2.xz
.xz
BTB has LRU replacement policy
ITLB has LRU replacement policy
DTLB has LRU replacement policy
STLB has LRU replacement policy
L1I has LRU replacement policy
L1D has LRU replacement policy
L2C has LRU replacement policy
Initialize DRRIP state for LLC
PIN_registerGraphs(random_u18_k2.sg,1)
Graphh Number of Nodes: 262144
Heartbeat CPU 0 instructions: 1000000 cycles: 347953 heartbeat IPC: 2.87395 cumulative IPC: 2.87395 (Simulation time: 0 hr 0 min 4 sec) 
Heartbeat CPU 0 instructions: 2000001 cycles: 681286 heartbeat IPC: 3.00001 cumulative IPC: 2.93563 (Simulation time: 0 hr 0 min 6 sec) 
Heartbeat CPU 0 instructions: 3000000 cycles: 1014554 heartbeat IPC: 3.00059 cumulative IPC: 2.95696 (Simulation time: 0 hr 0 min 9 sec) 
Heartbeat CPU 0 instructions: 4000003 cycles: 1347889 heartbeat IPC: 2.99999 cumulative IPC: 2.96761 (Simulation time: 0 hr 0 min 11 sec) 
Heartbeat CPU 0 instructions: 5000003 cycles: 1681222 heartbeat IPC: 3 cumulative IPC: 2.97403 (Simulation time: 0 hr 0 min 13 sec) 
PIN_updateRegBaseBound( 94507968229584, 94507969278160)
updateCurrDst(279)
updateCurrDst(328)
updateCurrDst(377)
updateCurrDst(443)
updateCurrDst(491)
updateCurrDst(637)
updateCurrDst(670)
updateCurrDst(843)
updateCurrDst(994)
updateCurrDst(1029)
updateCurrDst(1081)
updateCurrDst(1084)
updateCurrDst(1090)
updateCurrDst(1205)
updateCurrDst(1265)
updateCurrDst(1282)
updateCurrDst(1341)
updateCurrDst(1431)
updateCurrDst(1698)
updateCurrDst(1895)
updateCurrDst(1896)
updateCurrDst(1971)
updateCurrDst(1973)
updateCurrDst(2013)
updateCurrDst(2141)
updateCurrDst(2217)
Heartbeat CPU 0 instructions: 6000001 cycles: 2008690 heartbeat IPC: 3.05373 cumulative IPC: 2.98702 (Simulation time: 0 hr 0 min 18 sec) 
updateCurrDst(2456)
updateCurrDst(2517)
updateCurrDst(2532)
updateCurrDst(2643)
updateCurrDst(2738)
updateCurrDst(2991)
updateCurrDst(3017)
updateCurrDst(3046)
updateCurrDst(3238)
updateCurrDst(3352)
updateCurrDst(3453)
updateCurrDst(3470)
updateCurrDst(3657)
updateCurrDst(3767)
updateCurrDst(3775)
updateCurrDst(3787)
updateCurrDst(3934)
updateCurrDst(4123)
updateCurrDst(4237)
updateCurrDst(4394)
updateCurrDst(4429)
updateCurrDst(4463)
updateCurrDst(4507)
updateCurrDst(4516)
updateCurrDst(4649)
updateCurrDst(4731)
Heartbeat CPU 0 instructions: 7000003 cycles: 2336527 heartbeat IPC: 3.0503 cumulative IPC: 2.9959 (Simulation time: 0 hr 0 min 22 sec) 
updateCurrDst(5069)
updateCurrDst(5374)
updateCurrDst(5407)
updateCurrDst(5425)
updateCurrDst(5549)
updateCurrDst(5611)
updateCurrDst(5764)
updateCurrDst(5931)
updateCurrDst(6049)
updateCurrDst(6294)
updateCurrDst(6592)
updateCurrDst(6753)
updateCurrDst(6821)
updateCurrDst(7353)
updateCurrDst(7359)
updateCurrDst(7375)
updateCurrDst(7434)
updateCurrDst(7540)
Heartbeat CPU 0 instructions: 8000002 cycles: 2664178 heartbeat IPC: 3.05202 cumulative IPC: 3.0028 (Simulation time: 0 hr 0 min 26 sec) 
updateCurrDst(7569)
updateCurrDst(7619)
updateCurrDst(7647)
updateCurrDst(7693)
updateCurrDst(7735)
updateCurrDst(7759)
updateCurrDst(7776)
updateCurrDst(8025)
updateCurrDst(8050)
updateCurrDst(8064)
updateCurrDst(8121)
updateCurrDst(8161)
updateCurrDst(8188)
updateCurrDst(8307)
updateCurrDst(8344)
updateCurrDst(8513)
updateCurrDst(8605)
updateCurrDst(8633)
updateCurrDst(8761)
updateCurrDst(8774)
updateCurrDst(9114)
updateCurrDst(9256)
updateCurrDst(9366)
updateCurrDst(9430)
updateCurrDst(9440)
updateCurrDst(9444)
updateCurrDst(9734)
updateCurrDst(9932)
updateCurrDst(9936)
updateCurrDst(9991)
updateCurrDst(10097)
updateCurrDst(10124)
Heartbeat CPU 0 instructions: 9000001 cycles: 2991832 heartbeat IPC: 3.052 cumulative IPC: 3.00819 (Simulation time: 0 hr 0 min 30 sec) 
updateCurrDst(10165)
updateCurrDst(10184)
updateCurrDst(10250)
updateCurrDst(10286)
updateCurrDst(10301)
updateCurrDst(10367)
updateCurrDst(10426)
updateCurrDst(10498)
updateCurrDst(10511)
updateCurrDst(10548)
updateCurrDst(10580)
updateCurrDst(10693)
updateCurrDst(10752)
updateCurrDst(10769)
updateCurrDst(10783)
updateCurrDst(10790)
updateCurrDst(10847)
updateCurrDst(10919)
updateCurrDst(10965)
updateCurrDst(11096)
updateCurrDst(11649)
updateCurrDst(11695)
updateCurrDst(11925)
updateCurrDst(12278)
updateCurrDst(12291)
updateCurrDst(12297)
updateCurrDst(12606)
updateCurrDst(12626)
updateCurrDst(12670)
Heartbeat CPU 0 instructions: 10000001 cycles: 3319620 heartbeat IPC: 3.05075 cumulative IPC: 3.01239 (Simulation time: 0 hr 0 min 34 sec) 
updateCurrDst(12820)
updateCurrDst(12896)
updateCurrDst(12905)
updateCurrDst(12938)
updateCurrDst(12990)
updateCurrDst(13121)
updateCurrDst(13278)
updateCurrDst(13307)
updateCurrDst(13338)
updateCurrDst(13376)
updateCurrDst(13634)
updateCurrDst(13715)
updateCurrDst(13898)
updateCurrDst(13939)
updateCurrDst(14027)
updateCurrDst(14052)
updateCurrDst(14055)
updateCurrDst(14307)
updateCurrDst(14433)
updateCurrDst(14465)
updateCurrDst(14496)
updateCurrDst(14539)
updateCurrDst(14586)
updateCurrDst(15208)
Heartbeat CPU 0 instructions: 11000000 cycles: 3647635 heartbeat IPC: 3.04864 cumulative IPC: 3.01565 (Simulation time: 0 hr 0 min 38 sec) 
updateCurrDst(15381)
updateCurrDst(15398)
updateCurrDst(15420)
updateCurrDst(15449)
updateCurrDst(15471)
updateCurrDst(15511)
updateCurrDst(15560)
updateCurrDst(15611)
updateCurrDst(15636)
updateCurrDst(15723)
updateCurrDst(15907)
updateCurrDst(16439)
updateCurrDst(16440)
updateCurrDst(16512)
updateCurrDst(16609)
updateCurrDst(16870)
updateCurrDst(16925)
updateCurrDst(16939)
updateCurrDst(16944)
updateCurrDst(17161)
updateCurrDst(17198)
updateCurrDst(17200)
updateCurrDst(17372)
updateCurrDst(17385)
updateCurrDst(17406)
updateCurrDst(17431)
updateCurrDst(17719)
updateCurrDst(17738)
updateCurrDst(17848)
updateCurrDst(17877)
Heartbeat CPU 0 instructions: 12000000 cycles: 3975415 heartbeat IPC: 3.05083 cumulative IPC: 3.01855 (Simulation time: 0 hr 0 min 43 sec) 
updateCurrDst(17965)
updateCurrDst(18076)
updateCurrDst(18162)
updateCurrDst(18204)
updateCurrDst(18517)
updateCurrDst(18576)
updateCurrDst(18690)
updateCurrDst(18773)
updateCurrDst(18817)
updateCurrDst(18839)
updateCurrDst(18845)
updateCurrDst(18860)
updateCurrDst(19045)
updateCurrDst(19105)
updateCurrDst(19316)
updateCurrDst(19329)
updateCurrDst(19453)
updateCurrDst(19619)
updateCurrDst(19822)
updateCurrDst(19823)
updateCurrDst(19832)
updateCurrDst(19892)
updateCurrDst(19940)
updateCurrDst(20065)
updateCurrDst(20089)
updateCurrDst(20207)
updateCurrDst(20517)
Heartbeat CPU 0 instructions: 13000001 cycles: 4303099 heartbeat IPC: 3.05172 cumulative IPC: 3.02108 (Simulation time: 0 hr 0 min 47 sec) 
updateCurrDst(20636)
updateCurrDst(20665)
updateCurrDst(20829)
updateCurrDst(20841)
updateCurrDst(20851)
updateCurrDst(20856)
updateCurrDst(21165)
updateCurrDst(21270)
updateCurrDst(21604)
updateCurrDst(21729)
updateCurrDst(21790)
updateCurrDst(21795)
updateCurrDst(21801)
updateCurrDst(21945)
updateCurrDst(21949)
updateCurrDst(22089)
updateCurrDst(22162)
updateCurrDst(22222)
updateCurrDst(22307)
updateCurrDst(22311)
updateCurrDst(22408)
updateCurrDst(22584)
updateCurrDst(22749)
updateCurrDst(22998)
updateCurrDst(23030)
updateCurrDst(23062)
updateCurrDst(23078)
updateCurrDst(23095)
Heartbeat CPU 0 instructions: 14000002 cycles: 4630524 heartbeat IPC: 3.05414 cumulative IPC: 3.02342 (Simulation time: 0 hr 0 min 53 sec) 
updateCurrDst(23120)
updateCurrDst(23151)
updateCurrDst(23223)
updateCurrDst(23392)
updateCurrDst(23529)
updateCurrDst(23704)
updateCurrDst(23835)
updateCurrDst(23905)
updateCurrDst(23947)
updateCurrDst(23962)
updateCurrDst(24014)
updateCurrDst(24050)
updateCurrDst(24133)
updateCurrDst(24279)
updateCurrDst(24406)
updateCurrDst(24458)
updateCurrDst(24497)
updateCurrDst(24554)
updateCurrDst(24614)
updateCurrDst(24669)
updateCurrDst(24701)
updateCurrDst(24920)
updateCurrDst(24949)
updateCurrDst(25269)
updateCurrDst(25323)
updateCurrDst(25354)
updateCurrDst(25396)
updateCurrDst(25422)
updateCurrDst(25480)
updateCurrDst(25669)
Heartbeat CPU 0 instructions: 15000001 cycles: 4957819 heartbeat IPC: 3.05534 cumulative IPC: 3.02552 (Simulation time: 0 hr 0 min 59 sec) 
updateCurrDst(25833)
updateCurrDst(25899)
updateCurrDst(25900)
updateCurrDst(26043)
updateCurrDst(26155)
updateCurrDst(26281)
updateCurrDst(26417)
updateCurrDst(26481)
updateCurrDst(26520)
updateCurrDst(26676)
updateCurrDst(26740)
updateCurrDst(26836)
updateCurrDst(26876)
updateCurrDst(27045)
updateCurrDst(27046)
updateCurrDst(27111)
updateCurrDst(27126)
updateCurrDst(27136)
updateCurrDst(27163)
updateCurrDst(27178)
updateCurrDst(27277)
updateCurrDst(27313)
updateCurrDst(27416)
updateCurrDst(27753)
updateCurrDst(27766)
updateCurrDst(27925)
updateCurrDst(27965)
updateCurrDst(28028)
updateCurrDst(28045)
updateCurrDst(28055)
updateCurrDst(28069)
updateCurrDst(28140)
updateCurrDst(28246)
Heartbeat CPU 0 instructions: 16000000 cycles: 5285716 heartbeat IPC: 3.04974 cumulative IPC: 3.02703 (Simulation time: 0 hr 1 min 6 sec) 
updateCurrDst(28328)
updateCurrDst(28370)
updateCurrDst(28439)
updateCurrDst(28443)
updateCurrDst(28456)
updateCurrDst(28465)
updateCurrDst(28528)
updateCurrDst(28658)
updateCurrDst(28854)
updateCurrDst(28897)
updateCurrDst(28974)
updateCurrDst(29092)
updateCurrDst(29116)
updateCurrDst(29167)
updateCurrDst(29211)
updateCurrDst(29258)
updateCurrDst(29295)
updateCurrDst(29828)
updateCurrDst(29850)
updateCurrDst(30012)
updateCurrDst(30209)
updateCurrDst(30512)
updateCurrDst(30625)
Heartbeat CPU 0 instructions: 17000000 cycles: 5613260 heartbeat IPC: 3.05303 cumulative IPC: 3.02854 (Simulation time: 0 hr 1 min 12 sec) 
updateCurrDst(30928)
updateCurrDst(31314)
updateCurrDst(31396)
updateCurrDst(31564)
updateCurrDst(31653)
updateCurrDst(31812)
updateCurrDst(31917)
updateCurrDst(32039)
updateCurrDst(32095)
updateCurrDst(32518)
updateCurrDst(32536)
updateCurrDst(32743)
updateCurrDst(32923)
updateCurrDst(33117)
updateCurrDst(33364)
updateCurrDst(33380)
Heartbeat CPU 0 instructions: 18000001 cycles: 5940754 heartbeat IPC: 3.05349 cumulative IPC: 3.02992 (Simulation time: 0 hr 1 min 19 sec) 
updateCurrDst(33578)
updateCurrDst(33584)
updateCurrDst(33605)
updateCurrDst(33646)
updateCurrDst(33739)
updateCurrDst(34038)
updateCurrDst(34213)
updateCurrDst(34240)
updateCurrDst(34256)
updateCurrDst(34380)
updateCurrDst(35107)
updateCurrDst(35168)
updateCurrDst(35180)
updateCurrDst(35283)
updateCurrDst(35431)
updateCurrDst(35508)
updateCurrDst(35614)
updateCurrDst(35728)
updateCurrDst(35732)
updateCurrDst(35974)
updateCurrDst(36027)
Heartbeat CPU 0 instructions: 19000001 cycles: 6268569 heartbeat IPC: 3.0505 cumulative IPC: 3.03099 (Simulation time: 0 hr 1 min 26 sec) 
updateCurrDst(36094)
updateCurrDst(36176)
updateCurrDst(36310)
updateCurrDst(36312)
updateCurrDst(36338)
updateCurrDst(36346)
updateCurrDst(36550)
updateCurrDst(36572)
updateCurrDst(36634)
updateCurrDst(36690)
updateCurrDst(36706)
updateCurrDst(36711)
updateCurrDst(36727)
updateCurrDst(37075)
updateCurrDst(37089)
updateCurrDst(37206)
updateCurrDst(37382)
updateCurrDst(37387)
updateCurrDst(37453)
updateCurrDst(37521)
updateCurrDst(37544)
updateCurrDst(38029)
updateCurrDst(38083)
updateCurrDst(38087)
updateCurrDst(38199)
updateCurrDst(38356)
updateCurrDst(38486)
updateCurrDst(38494)
updateCurrDst(38536)
updateCurrDst(38595)
Heartbeat CPU 0 instructions: 20000000 cycles: 6596222 heartbeat IPC: 3.05201 cumulative IPC: 3.03204 (Simulation time: 0 hr 1 min 33 sec) 
updateCurrDst(38720)
updateCurrDst(39010)
updateCurrDst(39099)
updateCurrDst(39236)
updateCurrDst(39239)
updateCurrDst(39322)
updateCurrDst(39521)
updateCurrDst(39857)
updateCurrDst(39928)
updateCurrDst(40024)
updateCurrDst(40029)
updateCurrDst(40222)
updateCurrDst(40225)
updateCurrDst(40319)
updateCurrDst(40496)
updateCurrDst(40525)
updateCurrDst(40593)
updateCurrDst(40772)
updateCurrDst(40862)
updateCurrDst(41079)
updateCurrDst(41091)
updateCurrDst(41100)
updateCurrDst(41174)
updateCurrDst(41200)
Heartbeat CPU 0 instructions: 21000000 cycles: 6923813 heartbeat IPC: 3.05259 cumulative IPC: 3.03301 (Simulation time: 0 hr 1 min 40 sec) 
updateCurrDst(41317)
updateCurrDst(41363)
updateCurrDst(41368)
updateCurrDst(41723)
updateCurrDst(41837)
updateCurrDst(41925)
updateCurrDst(42055)
updateCurrDst(42181)
updateCurrDst(42218)
updateCurrDst(42290)
updateCurrDst(42316)
updateCurrDst(42334)
updateCurrDst(42337)
updateCurrDst(42402)
updateCurrDst(42465)
updateCurrDst(42469)
updateCurrDst(42617)
updateCurrDst(42660)
updateCurrDst(42783)
updateCurrDst(42976)
updateCurrDst(43054)
updateCurrDst(43057)
updateCurrDst(43086)
updateCurrDst(43472)
updateCurrDst(43586)
updateCurrDst(43596)
updateCurrDst(43639)
updateCurrDst(43859)
Heartbeat CPU 0 instructions: 22000000 cycles: 7251651 heartbeat IPC: 3.05029 cumulative IPC: 3.03379 (Simulation time: 0 hr 1 min 46 sec) 
updateCurrDst(43898)
updateCurrDst(44022)
updateCurrDst(44047)
updateCurrDst(44228)
updateCurrDst(44233)
updateCurrDst(44255)
updateCurrDst(44274)
updateCurrDst(44310)
updateCurrDst(44463)
updateCurrDst(44474)
updateCurrDst(44502)
updateCurrDst(44567)
updateCurrDst(44680)
updateCurrDst(44710)
updateCurrDst(44777)
updateCurrDst(44778)
updateCurrDst(44862)
updateCurrDst(44961)
updateCurrDst(45173)
updateCurrDst(45523)
updateCurrDst(45569)
updateCurrDst(45619)
updateCurrDst(45682)
updateCurrDst(45776)
updateCurrDst(45843)
updateCurrDst(45854)
updateCurrDst(45882)
updateCurrDst(46038)
updateCurrDst(46051)
updateCurrDst(46069)
updateCurrDst(46173)
updateCurrDst(46248)
updateCurrDst(46418)
Heartbeat CPU 0 instructions: 23000003 cycles: 7579671 heartbeat IPC: 3.0486 cumulative IPC: 3.03443 (Simulation time: 0 hr 1 min 52 sec) 
updateCurrDst(46484)
updateCurrDst(46507)
updateCurrDst(46582)
updateCurrDst(46719)
updateCurrDst(46726)
updateCurrDst(46940)
updateCurrDst(46960)
updateCurrDst(47062)
updateCurrDst(47127)
updateCurrDst(47142)
updateCurrDst(47207)
updateCurrDst(47215)
updateCurrDst(47247)
updateCurrDst(47292)
updateCurrDst(47481)
updateCurrDst(47789)
updateCurrDst(47813)
updateCurrDst(47847)
updateCurrDst(47858)
updateCurrDst(47896)
updateCurrDst(47901)
updateCurrDst(48008)
updateCurrDst(48054)
updateCurrDst(48302)
updateCurrDst(48339)
updateCurrDst(48364)
updateCurrDst(48524)
updateCurrDst(48587)
updateCurrDst(48603)
updateCurrDst(48892)
updateCurrDst(49061)
updateCurrDst(49077)
Heartbeat CPU 0 instructions: 24000002 cycles: 7907405 heartbeat IPC: 3.05125 cumulative IPC: 3.03513 (Simulation time: 0 hr 2 min 0 sec) 
updateCurrDst(49087)
updateCurrDst(49104)
updateCurrDst(49106)
updateCurrDst(49226)
updateCurrDst(49261)
updateCurrDst(49516)
updateCurrDst(49532)
updateCurrDst(49542)
updateCurrDst(49580)
updateCurrDst(49775)
updateCurrDst(49875)
updateCurrDst(49909)
updateCurrDst(49923)
updateCurrDst(49936)
updateCurrDst(49948)
updateCurrDst(50042)
updateCurrDst(50092)
updateCurrDst(50117)
updateCurrDst(50692)
updateCurrDst(50770)
updateCurrDst(50876)
updateCurrDst(50957)
updateCurrDst(50974)
updateCurrDst(50975)
updateCurrDst(51024)
updateCurrDst(51067)
updateCurrDst(51169)
updateCurrDst(51206)
updateCurrDst(51215)
updateCurrDst(51379)
updateCurrDst(51473)
updateCurrDst(51492)
updateCurrDst(51544)
Heartbeat CPU 0 instructions: 25000002 cycles: 8235027 heartbeat IPC: 3.0523 cumulative IPC: 3.03581 (Simulation time: 0 hr 2 min 6 sec) 
updateCurrDst(51659)
updateCurrDst(51725)
updateCurrDst(51761)
updateCurrDst(51780)
updateCurrDst(51898)
updateCurrDst(51911)
updateCurrDst(52289)
updateCurrDst(52495)
updateCurrDst(52523)
updateCurrDst(52589)
updateCurrDst(53027)
updateCurrDst(53240)
updateCurrDst(53255)
updateCurrDst(53399)
updateCurrDst(53485)
updateCurrDst(53494)
updateCurrDst(53608)
updateCurrDst(53668)
updateCurrDst(53756)
updateCurrDst(53911)
updateCurrDst(53958)
updateCurrDst(53990)
updateCurrDst(54003)
updateCurrDst(54087)
updateCurrDst(54137)
updateCurrDst(54254)
Heartbeat CPU 0 instructions: 26000001 cycles: 8562835 heartbeat IPC: 3.05056 cumulative IPC: 3.03638 (Simulation time: 0 hr 2 min 13 sec) 
updateCurrDst(54406)
updateCurrDst(54457)
updateCurrDst(54482)
updateCurrDst(54560)
updateCurrDst(54592)
updateCurrDst(54727)
updateCurrDst(54743)
updateCurrDst(54796)
updateCurrDst(54949)
updateCurrDst(54992)
updateCurrDst(55248)
updateCurrDst(55387)
updateCurrDst(55440)
updateCurrDst(55457)
updateCurrDst(55557)
updateCurrDst(55649)
updateCurrDst(55821)
updateCurrDst(55834)
updateCurrDst(56013)
updateCurrDst(56067)
updateCurrDst(56097)
updateCurrDst(56169)
updateCurrDst(56222)
updateCurrDst(56399)
updateCurrDst(56765)
Heartbeat CPU 0 instructions: 27000002 cycles: 8890617 heartbeat IPC: 3.05081 cumulative IPC: 3.03691 (Simulation time: 0 hr 2 min 20 sec) 
updateCurrDst(56901)
updateCurrDst(56969)
updateCurrDst(57065)
updateCurrDst(57245)
updateCurrDst(57309)
updateCurrDst(57486)
updateCurrDst(57548)
updateCurrDst(57559)
updateCurrDst(57863)
updateCurrDst(57953)
updateCurrDst(58011)
updateCurrDst(58051)
updateCurrDst(58087)
updateCurrDst(58113)
updateCurrDst(58138)
updateCurrDst(58284)
updateCurrDst(58296)
updateCurrDst(58384)
updateCurrDst(58484)
updateCurrDst(58496)
updateCurrDst(58521)
updateCurrDst(58601)
updateCurrDst(58693)
updateCurrDst(58953)
updateCurrDst(59017)
updateCurrDst(59063)
updateCurrDst(59224)
Heartbeat CPU 0 instructions: 28000002 cycles: 9218263 heartbeat IPC: 3.05207 cumulative IPC: 3.03745 (Simulation time: 0 hr 2 min 27 sec) 
updateCurrDst(59453)
updateCurrDst(59486)
updateCurrDst(59496)
updateCurrDst(59728)
updateCurrDst(59869)
updateCurrDst(60104)
updateCurrDst(60128)
updateCurrDst(60171)
updateCurrDst(60248)
updateCurrDst(60252)
updateCurrDst(60390)
updateCurrDst(60441)
updateCurrDst(60706)
updateCurrDst(60764)
updateCurrDst(60870)
updateCurrDst(60929)
updateCurrDst(60982)
updateCurrDst(60991)
updateCurrDst(61018)
updateCurrDst(61131)
updateCurrDst(61167)
updateCurrDst(61234)
updateCurrDst(61238)
updateCurrDst(61395)
updateCurrDst(61430)
updateCurrDst(61434)
updateCurrDst(61459)
updateCurrDst(61609)
updateCurrDst(61632)
updateCurrDst(61882)
Heartbeat CPU 0 instructions: 29000000 cycles: 9545750 heartbeat IPC: 3.05355 cumulative IPC: 3.038 (Simulation time: 0 hr 2 min 33 sec) 
updateCurrDst(62031)
updateCurrDst(62521)
updateCurrDst(62523)
updateCurrDst(62687)
updateCurrDst(62705)
updateCurrDst(62782)
updateCurrDst(62819)
updateCurrDst(62982)
updateCurrDst(63003)
updateCurrDst(63050)
updateCurrDst(63059)
updateCurrDst(63341)
updateCurrDst(63554)
updateCurrDst(63691)
updateCurrDst(63756)
updateCurrDst(63907)
updateCurrDst(63920)
updateCurrDst(64139)
updateCurrDst(64142)
updateCurrDst(64399)
updateCurrDst(64426)
updateCurrDst(64473)
updateCurrDst(64485)
updateCurrDst(64493)
updateCurrDst(64529)
Heartbeat CPU 0 instructions: 30000001 cycles: 9873646 heartbeat IPC: 3.04975 cumulative IPC: 3.03839 (Simulation time: 0 hr 2 min 39 sec) 
updateCurrDst(64654)
updateCurrDst(64658)
updateCurrDst(64711)
updateCurrDst(64794)
updateCurrDst(64862)
updateCurrDst(64905)
updateCurrDst(64922)
updateCurrDst(65023)
updateCurrDst(65027)
updateCurrDst(65084)
updateCurrDst(65094)
updateCurrDst(65265)
updateCurrDst(65336)
updateCurrDst(65511)
updateCurrDst(65697)
updateCurrDst(65879)
updateCurrDst(65945)
updateCurrDst(65958)
updateCurrDst(65993)
updateCurrDst(66140)
updateCurrDst(66144)
updateCurrDst(66600)
updateCurrDst(66637)
updateCurrDst(66656)
updateCurrDst(66841)
updateCurrDst(66883)
updateCurrDst(66983)
updateCurrDst(67001)
updateCurrDst(67011)
updateCurrDst(67132)
Heartbeat CPU 0 instructions: 31000003 cycles: 10201676 heartbeat IPC: 3.04851 cumulative IPC: 3.03872 (Simulation time: 0 hr 2 min 45 sec) 
updateCurrDst(67490)
updateCurrDst(67508)
updateCurrDst(67553)
updateCurrDst(67570)
updateCurrDst(67633)
updateCurrDst(67715)
updateCurrDst(67825)
updateCurrDst(67881)
updateCurrDst(67901)
updateCurrDst(67921)
updateCurrDst(67942)
updateCurrDst(68180)
updateCurrDst(68238)
updateCurrDst(68321)
updateCurrDst(68524)
updateCurrDst(68622)
updateCurrDst(69015)
updateCurrDst(69022)
updateCurrDst(69060)
updateCurrDst(69124)
updateCurrDst(69213)
updateCurrDst(69221)
updateCurrDst(69429)
updateCurrDst(69533)
updateCurrDst(69659)
updateCurrDst(69803)
Heartbeat CPU 0 instructions: 32000002 cycles: 10529153 heartbeat IPC: 3.05365 cumulative IPC: 3.03918 (Simulation time: 0 hr 2 min 53 sec) 
updateCurrDst(69832)
updateCurrDst(69889)
updateCurrDst(70098)
updateCurrDst(70434)
updateCurrDst(70562)
updateCurrDst(70575)
updateCurrDst(70657)
updateCurrDst(70675)
updateCurrDst(70719)
updateCurrDst(70776)
updateCurrDst(70924)
updateCurrDst(70941)
updateCurrDst(71066)
updateCurrDst(71131)
updateCurrDst(71209)
updateCurrDst(71250)
updateCurrDst(71346)
updateCurrDst(71509)
updateCurrDst(71631)
updateCurrDst(71686)
updateCurrDst(71697)
updateCurrDst(71699)
updateCurrDst(71887)
updateCurrDst(72122)
updateCurrDst(72192)
updateCurrDst(72205)
updateCurrDst(72389)
Heartbeat CPU 0 instructions: 33000000 cycles: 10856587 heartbeat IPC: 3.05404 cumulative IPC: 3.03963 (Simulation time: 0 hr 3 min 1 sec) 
updateCurrDst(72420)
updateCurrDst(72462)
updateCurrDst(72483)
updateCurrDst(72498)
updateCurrDst(72500)
updateCurrDst(72554)
updateCurrDst(72606)
updateCurrDst(72630)
updateCurrDst(72698)
updateCurrDst(72768)
updateCurrDst(72770)
updateCurrDst(72843)
updateCurrDst(72947)
updateCurrDst(72979)
updateCurrDst(73281)
updateCurrDst(73383)
updateCurrDst(73617)
updateCurrDst(73889)
updateCurrDst(73966)
updateCurrDst(74028)
updateCurrDst(74090)
updateCurrDst(74247)
updateCurrDst(74279)
updateCurrDst(74301)
updateCurrDst(74443)
updateCurrDst(74658)
updateCurrDst(74779)
updateCurrDst(74801)
updateCurrDst(74869)
updateCurrDst(74923)
Heartbeat CPU 0 instructions: 34000002 cycles: 11184277 heartbeat IPC: 3.05167 cumulative IPC: 3.03998 (Simulation time: 0 hr 3 min 8 sec) 
updateCurrDst(75182)
updateCurrDst(75345)
updateCurrDst(75373)
updateCurrDst(75391)
updateCurrDst(75667)
updateCurrDst(75818)
updateCurrDst(75826)
updateCurrDst(75990)
updateCurrDst(76380)
updateCurrDst(76593)
updateCurrDst(76715)
updateCurrDst(76994)
updateCurrDst(77014)
updateCurrDst(77117)
updateCurrDst(77211)
updateCurrDst(77243)
updateCurrDst(77327)
updateCurrDst(77379)
updateCurrDst(77389)
updateCurrDst(77400)
updateCurrDst(77455)
updateCurrDst(77474)
Heartbeat CPU 0 instructions: 35000000 cycles: 11511934 heartbeat IPC: 3.05197 cumulative IPC: 3.04032 (Simulation time: 0 hr 3 min 15 sec) 
updateCurrDst(77728)
updateCurrDst(77792)
updateCurrDst(77925)
updateCurrDst(78057)
updateCurrDst(78079)
updateCurrDst(78139)
updateCurrDst(78180)
updateCurrDst(78276)
updateCurrDst(78400)
updateCurrDst(78505)
updateCurrDst(78835)
updateCurrDst(78864)
updateCurrDst(78920)
updateCurrDst(79008)
updateCurrDst(79192)
updateCurrDst(79194)
updateCurrDst(79237)
updateCurrDst(79340)
updateCurrDst(79351)
updateCurrDst(79460)
updateCurrDst(79569)
updateCurrDst(79613)
updateCurrDst(79642)
updateCurrDst(79755)
updateCurrDst(79892)
updateCurrDst(79961)
updateCurrDst(80013)
updateCurrDst(80095)
Heartbeat CPU 0 instructions: 36000000 cycles: 11839674 heartbeat IPC: 3.0512 cumulative IPC: 3.04062 (Simulation time: 0 hr 3 min 22 sec) 
updateCurrDst(80256)
updateCurrDst(80288)
updateCurrDst(80338)
updateCurrDst(80576)
updateCurrDst(80630)
updateCurrDst(80644)
updateCurrDst(80645)
updateCurrDst(80650)
updateCurrDst(80682)
updateCurrDst(80689)
updateCurrDst(80915)
updateCurrDst(81050)
updateCurrDst(81082)
updateCurrDst(81376)
updateCurrDst(81697)
updateCurrDst(81733)
updateCurrDst(81892)
updateCurrDst(81895)
updateCurrDst(81979)
updateCurrDst(81992)
updateCurrDst(82428)
updateCurrDst(82632)
Heartbeat CPU 0 instructions: 37000001 cycles: 12167400 heartbeat IPC: 3.05133 cumulative IPC: 3.04091 (Simulation time: 0 hr 3 min 29 sec) 
updateCurrDst(82832)
updateCurrDst(82904)
updateCurrDst(82983)
updateCurrDst(83035)
updateCurrDst(83253)
updateCurrDst(83258)
updateCurrDst(83327)
updateCurrDst(83466)
updateCurrDst(83485)
updateCurrDst(83488)
updateCurrDst(83496)
updateCurrDst(83633)
updateCurrDst(83789)
updateCurrDst(83816)
updateCurrDst(83882)
updateCurrDst(83991)
updateCurrDst(84014)
updateCurrDst(84088)
updateCurrDst(84165)
updateCurrDst(84182)
updateCurrDst(84402)
updateCurrDst(84403)
updateCurrDst(84614)
updateCurrDst(84847)
updateCurrDst(84897)
updateCurrDst(85003)
updateCurrDst(85399)
Heartbeat CPU 0 instructions: 38000002 cycles: 12495177 heartbeat IPC: 3.05086 cumulative IPC: 3.04117 (Simulation time: 0 hr 3 min 35 sec) 
updateCurrDst(85499)
updateCurrDst(85709)
updateCurrDst(85875)
updateCurrDst(85911)
updateCurrDst(85920)
updateCurrDst(86180)
updateCurrDst(86226)
updateCurrDst(86285)
updateCurrDst(86353)
updateCurrDst(86550)
updateCurrDst(86593)
updateCurrDst(86778)
updateCurrDst(86846)
updateCurrDst(86884)
updateCurrDst(87032)
updateCurrDst(87072)
updateCurrDst(87109)
updateCurrDst(87139)
updateCurrDst(87153)
updateCurrDst(87179)
updateCurrDst(87231)
updateCurrDst(87269)
updateCurrDst(87358)
updateCurrDst(87362)
updateCurrDst(87411)
updateCurrDst(87422)
updateCurrDst(87684)
updateCurrDst(87746)
updateCurrDst(87865)
Heartbeat CPU 0 instructions: 39000000 cycles: 12822804 heartbeat IPC: 3.05225 cumulative IPC: 3.04146 (Simulation time: 0 hr 3 min 41 sec) 
updateCurrDst(88074)
updateCurrDst(88088)
updateCurrDst(88142)
updateCurrDst(88472)
updateCurrDst(88527)
updateCurrDst(88657)
updateCurrDst(88858)
updateCurrDst(88919)
updateCurrDst(88986)
updateCurrDst(89013)
updateCurrDst(89037)
updateCurrDst(89067)
updateCurrDst(89256)
updateCurrDst(89257)
updateCurrDst(89370)
updateCurrDst(89461)
updateCurrDst(89517)
updateCurrDst(89570)
updateCurrDst(89734)
updateCurrDst(89842)
updateCurrDst(89887)
updateCurrDst(89939)
updateCurrDst(90178)
updateCurrDst(90191)
updateCurrDst(90450)
updateCurrDst(90527)
updateCurrDst(90539)
updateCurrDst(90605)
Heartbeat CPU 0 instructions: 40000003 cycles: 13150454 heartbeat IPC: 3.05205 cumulative IPC: 3.04172 (Simulation time: 0 hr 3 min 46 sec) 
updateCurrDst(90619)
updateCurrDst(90652)
updateCurrDst(90682)
updateCurrDst(90944)
updateCurrDst(90999)
updateCurrDst(91080)
updateCurrDst(91261)
updateCurrDst(91415)
updateCurrDst(91515)
updateCurrDst(91652)
updateCurrDst(91703)
updateCurrDst(91877)
updateCurrDst(91934)
updateCurrDst(91965)
updateCurrDst(91978)
updateCurrDst(92028)
updateCurrDst(92063)
updateCurrDst(92103)
updateCurrDst(92222)
updateCurrDst(92230)
updateCurrDst(92325)
updateCurrDst(92512)
updateCurrDst(92538)
updateCurrDst(92644)
updateCurrDst(92834)
updateCurrDst(93054)
updateCurrDst(93111)
Heartbeat CPU 0 instructions: 41000002 cycles: 13478104 heartbeat IPC: 3.05203 cumulative IPC: 3.04197 (Simulation time: 0 hr 3 min 54 sec) 
updateCurrDst(93276)
updateCurrDst(93495)
updateCurrDst(93684)
updateCurrDst(93706)
updateCurrDst(93831)
updateCurrDst(93881)
updateCurrDst(94023)
updateCurrDst(94094)
updateCurrDst(94124)
updateCurrDst(94243)
updateCurrDst(94262)
updateCurrDst(94264)
updateCurrDst(94285)
updateCurrDst(94355)
updateCurrDst(94412)
updateCurrDst(94498)
updateCurrDst(94518)
updateCurrDst(94622)
updateCurrDst(94704)
updateCurrDst(94774)
updateCurrDst(94830)
updateCurrDst(94833)
updateCurrDst(94897)
updateCurrDst(94940)
updateCurrDst(95278)
updateCurrDst(95295)
updateCurrDst(95357)
updateCurrDst(95464)
updateCurrDst(95530)
updateCurrDst(95589)
updateCurrDst(95689)
Heartbeat CPU 0 instructions: 42000001 cycles: 13805536 heartbeat IPC: 3.05407 cumulative IPC: 3.04226 (Simulation time: 0 hr 4 min 1 sec) 
updateCurrDst(95949)
updateCurrDst(96146)
updateCurrDst(96205)
updateCurrDst(96295)
updateCurrDst(96404)
updateCurrDst(96428)
updateCurrDst(96656)
updateCurrDst(96695)
updateCurrDst(96726)
updateCurrDst(97057)
updateCurrDst(97171)
updateCurrDst(97410)
updateCurrDst(97417)
updateCurrDst(97497)
updateCurrDst(97518)
updateCurrDst(97630)
updateCurrDst(97942)
updateCurrDst(98057)
updateCurrDst(98328)
Heartbeat CPU 0 instructions: 43000001 cycles: 14133531 heartbeat IPC: 3.04883 cumulative IPC: 3.04241 (Simulation time: 0 hr 4 min 9 sec) 
updateCurrDst(98423)
updateCurrDst(98475)
updateCurrDst(98505)
updateCurrDst(98539)
updateCurrDst(98552)
updateCurrDst(98574)
updateCurrDst(98725)
updateCurrDst(98731)
updateCurrDst(98867)
updateCurrDst(99023)
updateCurrDst(99223)
updateCurrDst(99248)
updateCurrDst(99366)
updateCurrDst(99408)
updateCurrDst(99750)
updateCurrDst(99914)
updateCurrDst(99917)
updateCurrDst(99965)
updateCurrDst(100181)
updateCurrDst(100185)
updateCurrDst(100294)
updateCurrDst(100380)
updateCurrDst(100481)
updateCurrDst(100516)
updateCurrDst(100594)
updateCurrDst(100623)
updateCurrDst(100729)
updateCurrDst(100744)
updateCurrDst(100802)
updateCurrDst(100874)
updateCurrDst(100891)
updateCurrDst(100901)
Heartbeat CPU 0 instructions: 44000000 cycles: 14461382 heartbeat IPC: 3.05016 cumulative IPC: 3.04259 (Simulation time: 0 hr 4 min 16 sec) 
updateCurrDst(101012)
updateCurrDst(101061)
updateCurrDst(101124)
updateCurrDst(101152)
updateCurrDst(101276)
updateCurrDst(101279)
updateCurrDst(101310)
updateCurrDst(101328)
updateCurrDst(101368)
updateCurrDst(101370)
updateCurrDst(101394)
updateCurrDst(101682)
updateCurrDst(101860)
updateCurrDst(101865)
updateCurrDst(101920)
updateCurrDst(102082)
updateCurrDst(102351)
updateCurrDst(102592)
updateCurrDst(102738)
updateCurrDst(102745)
updateCurrDst(103185)
updateCurrDst(103264)
updateCurrDst(103374)
updateCurrDst(103379)
updateCurrDst(103486)
updateCurrDst(103534)
Heartbeat CPU 0 instructions: 45000002 cycles: 14789365 heartbeat IPC: 3.04894 cumulative IPC: 3.04273 (Simulation time: 0 hr 4 min 23 sec) 
updateCurrDst(103609)
updateCurrDst(103618)
updateCurrDst(103621)
updateCurrDst(103719)
updateCurrDst(103787)
updateCurrDst(103813)
updateCurrDst(103829)
updateCurrDst(103836)
updateCurrDst(103843)
updateCurrDst(103889)
updateCurrDst(104018)
updateCurrDst(104141)
updateCurrDst(104167)
updateCurrDst(104218)
updateCurrDst(104269)
updateCurrDst(104344)
updateCurrDst(104502)
updateCurrDst(104517)
updateCurrDst(104626)
updateCurrDst(104701)
updateCurrDst(104729)
updateCurrDst(104995)
updateCurrDst(105137)
updateCurrDst(105184)
updateCurrDst(105412)
updateCurrDst(105431)
updateCurrDst(105530)
updateCurrDst(105552)
updateCurrDst(105556)
updateCurrDst(105592)
updateCurrDst(105631)
updateCurrDst(105890)
Heartbeat CPU 0 instructions: 46000003 cycles: 15117230 heartbeat IPC: 3.05004 cumulative IPC: 3.04289 (Simulation time: 0 hr 4 min 30 sec) 
updateCurrDst(106218)
updateCurrDst(106320)
updateCurrDst(106450)
updateCurrDst(106528)
updateCurrDst(106598)
updateCurrDst(106636)
updateCurrDst(106707)
updateCurrDst(106829)
updateCurrDst(106911)
updateCurrDst(107002)
updateCurrDst(107034)
updateCurrDst(107065)
updateCurrDst(107106)
updateCurrDst(107147)
updateCurrDst(107168)
updateCurrDst(107361)
updateCurrDst(107591)
updateCurrDst(107596)
updateCurrDst(107679)
updateCurrDst(107729)
updateCurrDst(107748)
updateCurrDst(107968)
updateCurrDst(108128)
updateCurrDst(108308)
updateCurrDst(108495)
updateCurrDst(108516)
updateCurrDst(108612)
updateCurrDst(108649)
updateCurrDst(108739)
updateCurrDst(108742)
Heartbeat CPU 0 instructions: 47000001 cycles: 15444609 heartbeat IPC: 3.05456 cumulative IPC: 3.04313 (Simulation time: 0 hr 4 min 36 sec) 
updateCurrDst(108990)
updateCurrDst(109154)
updateCurrDst(109184)
updateCurrDst(109195)
updateCurrDst(109418)
updateCurrDst(109439)
updateCurrDst(109450)
updateCurrDst(109453)
updateCurrDst(109698)
updateCurrDst(109724)
updateCurrDst(109819)
updateCurrDst(109891)
updateCurrDst(110191)
updateCurrDst(110221)
updateCurrDst(110301)
updateCurrDst(110311)
updateCurrDst(110357)
updateCurrDst(110452)
updateCurrDst(110578)
updateCurrDst(110667)
updateCurrDst(110745)
updateCurrDst(110805)
updateCurrDst(110881)
updateCurrDst(110933)
updateCurrDst(111034)
updateCurrDst(111126)
updateCurrDst(111174)
Heartbeat CPU 0 instructions: 48000000 cycles: 15772297 heartbeat IPC: 3.05168 cumulative IPC: 3.04331 (Simulation time: 0 hr 4 min 43 sec) 
updateCurrDst(111541)
updateCurrDst(111617)
updateCurrDst(111858)
updateCurrDst(112124)
updateCurrDst(112167)
updateCurrDst(112178)
updateCurrDst(112320)
updateCurrDst(112442)
updateCurrDst(112446)
updateCurrDst(112656)
updateCurrDst(112661)
updateCurrDst(112723)
updateCurrDst(112816)
updateCurrDst(112829)
updateCurrDst(112935)
updateCurrDst(113029)
updateCurrDst(113145)
updateCurrDst(113308)
updateCurrDst(113321)
updateCurrDst(113468)
updateCurrDst(113695)
updateCurrDst(113874)
updateCurrDst(113917)
updateCurrDst(113918)
updateCurrDst(113970)
Heartbeat CPU 0 instructions: 49000001 cycles: 16100108 heartbeat IPC: 3.05054 cumulative IPC: 3.04346 (Simulation time: 0 hr 4 min 50 sec) 
updateCurrDst(114137)
updateCurrDst(114138)
updateCurrDst(114181)
updateCurrDst(114224)
updateCurrDst(114243)
updateCurrDst(114353)
updateCurrDst(114356)
updateCurrDst(114482)
updateCurrDst(114552)
updateCurrDst(114772)
updateCurrDst(114806)
updateCurrDst(114845)
updateCurrDst(115309)
updateCurrDst(115342)
updateCurrDst(115381)
updateCurrDst(115683)
updateCurrDst(115718)
updateCurrDst(115793)
updateCurrDst(115850)
updateCurrDst(115920)
updateCurrDst(116008)
updateCurrDst(116047)
updateCurrDst(116250)
updateCurrDst(116254)
updateCurrDst(116270)
updateCurrDst(116350)
updateCurrDst(116356)
updateCurrDst(116539)
updateCurrDst(116547)
updateCurrDst(116559)
updateCurrDst(116572)
Heartbeat CPU 0 instructions: 50000003 cycles: 16428045 heartbeat IPC: 3.04937 cumulative IPC: 3.04358 (Simulation time: 0 hr 4 min 58 sec) 
updateCurrDst(116744)
updateCurrDst(116786)
updateCurrDst(116810)
updateCurrDst(116893)
updateCurrDst(117072)
updateCurrDst(117229)
updateCurrDst(117375)
updateCurrDst(117495)
updateCurrDst(117646)
updateCurrDst(117692)
updateCurrDst(117819)
updateCurrDst(117856)
updateCurrDst(117892)
updateCurrDst(118007)
updateCurrDst(118158)
updateCurrDst(118242)
updateCurrDst(118286)
updateCurrDst(118316)
updateCurrDst(118814)
updateCurrDst(119043)
updateCurrDst(119145)
updateCurrDst(119151)
Heartbeat CPU 0 instructions: 51000002 cycles: 16755957 heartbeat IPC: 3.0496 cumulative IPC: 3.04369 (Simulation time: 0 hr 5 min 5 sec) 
updateCurrDst(119240)
updateCurrDst(119484)
updateCurrDst(119856)
updateCurrDst(119944)
updateCurrDst(119949)
updateCurrDst(120058)
updateCurrDst(120124)
updateCurrDst(120146)
updateCurrDst(120190)
updateCurrDst(120259)
updateCurrDst(120355)
updateCurrDst(120399)
updateCurrDst(120427)
updateCurrDst(120431)
updateCurrDst(120475)
updateCurrDst(120550)
updateCurrDst(120804)
updateCurrDst(121005)
updateCurrDst(121244)
updateCurrDst(121491)
updateCurrDst(121515)
updateCurrDst(121624)
updateCurrDst(121719)
Heartbeat CPU 0 instructions: 52000002 cycles: 17083535 heartbeat IPC: 3.05271 cumulative IPC: 3.04387 (Simulation time: 0 hr 5 min 12 sec) 
updateCurrDst(121877)
updateCurrDst(121896)
updateCurrDst(121985)
updateCurrDst(122047)
updateCurrDst(122058)
updateCurrDst(122098)
updateCurrDst(122144)
updateCurrDst(122203)
updateCurrDst(122354)
updateCurrDst(122440)
updateCurrDst(122442)
updateCurrDst(122674)
updateCurrDst(122803)
updateCurrDst(122980)
updateCurrDst(123197)
updateCurrDst(123223)
updateCurrDst(123302)
updateCurrDst(123420)
updateCurrDst(123471)
updateCurrDst(123610)
updateCurrDst(123904)
updateCurrDst(124034)
updateCurrDst(124262)
Heartbeat CPU 0 instructions: 53000002 cycles: 17411516 heartbeat IPC: 3.04896 cumulative IPC: 3.04396 (Simulation time: 0 hr 5 min 19 sec) 
updateCurrDst(124402)
updateCurrDst(124460)
updateCurrDst(124583)
updateCurrDst(124588)
updateCurrDst(124663)
updateCurrDst(124801)
updateCurrDst(125214)
updateCurrDst(125230)
updateCurrDst(125232)
updateCurrDst(125276)
updateCurrDst(125388)
updateCurrDst(125416)
updateCurrDst(125417)
updateCurrDst(125437)
updateCurrDst(125643)
updateCurrDst(125651)
updateCurrDst(125736)
updateCurrDst(125847)
updateCurrDst(125868)
updateCurrDst(125910)
updateCurrDst(125944)
updateCurrDst(126208)
updateCurrDst(126519)
updateCurrDst(126578)
updateCurrDst(126583)
updateCurrDst(126754)
updateCurrDst(126994)
Heartbeat CPU 0 instructions: 54000001 cycles: 17739279 heartbeat IPC: 3.05098 cumulative IPC: 3.04409 (Simulation time: 0 hr 5 min 26 sec) 
updateCurrDst(127080)
updateCurrDst(127294)
updateCurrDst(127341)
updateCurrDst(127381)
updateCurrDst(127483)
updateCurrDst(127518)
updateCurrDst(127676)
updateCurrDst(127768)
updateCurrDst(127863)
updateCurrDst(127968)
updateCurrDst(128035)
updateCurrDst(128121)
updateCurrDst(128149)
updateCurrDst(128163)
updateCurrDst(128318)
updateCurrDst(128341)
updateCurrDst(128363)
updateCurrDst(128496)
updateCurrDst(128586)
updateCurrDst(128800)
updateCurrDst(128816)
updateCurrDst(128965)
updateCurrDst(129266)
updateCurrDst(129375)
updateCurrDst(129518)
Heartbeat CPU 0 instructions: 55000000 cycles: 18066894 heartbeat IPC: 3.05236 cumulative IPC: 3.04424 (Simulation time: 0 hr 5 min 33 sec) 

Warmup complete CPU 0 instructions: 55000004 cycles: 18066895 (Simulation time: 0 hr 5 min 33 sec) 

updateCurrDst(129645)
updateCurrDst(129906)
updateCurrDst(129942)
updateCurrDst(129963)
updateCurrDst(130130)
updateCurrDst(130143)
updateCurrDst(130149)
updateCurrDst(130178)
updateCurrDst(130407)
updateCurrDst(130501)
updateCurrDst(130511)
updateCurrDst(130548)
updateCurrDst(130585)
updateCurrDst(130886)
updateCurrDst(131121)
updateCurrDst(131127)
updateCurrDst(131372)
updateCurrDst(131540)
updateCurrDst(131742)
updateCurrDst(131877)
Heartbeat CPU 0 instructions: 56000000 cycles: 21095355 heartbeat IPC: 0.330201 cumulative IPC: 0.3302 (Simulation time: 0 hr 5 min 42 sec) 
updateCurrDst(132317)
updateCurrDst(132461)
updateCurrDst(132472)
updateCurrDst(132629)
updateCurrDst(132646)
updateCurrDst(132754)
updateCurrDst(132813)
updateCurrDst(133133)
updateCurrDst(133188)
updateCurrDst(133218)
updateCurrDst(133281)
updateCurrDst(133333)
updateCurrDst(133554)
updateCurrDst(133562)
updateCurrDst(133659)
updateCurrDst(133742)
updateCurrDst(134136)
updateCurrDst(134149)
updateCurrDst(134343)
updateCurrDst(134395)
updateCurrDst(134426)
updateCurrDst(134548)
updateCurrDst(134549)
updateCurrDst(134580)
updateCurrDst(134718)
Heartbeat CPU 0 instructions: 57000002 cycles: 24134167 heartbeat IPC: 0.329077 cumulative IPC: 0.329637 (Simulation time: 0 hr 5 min 51 sec) 
updateCurrDst(134841)
updateCurrDst(134940)
updateCurrDst(134950)
updateCurrDst(134977)
updateCurrDst(135043)
updateCurrDst(135063)
updateCurrDst(135067)
updateCurrDst(135078)
updateCurrDst(135323)
updateCurrDst(135466)
updateCurrDst(135633)
updateCurrDst(135828)
updateCurrDst(135873)
updateCurrDst(135912)
updateCurrDst(135975)
updateCurrDst(136025)
updateCurrDst(136480)
updateCurrDst(136598)
updateCurrDst(136730)
updateCurrDst(136796)
updateCurrDst(136895)
updateCurrDst(137126)
updateCurrDst(137247)
Heartbeat CPU 0 instructions: 58000003 cycles: 27153543 heartbeat IPC: 0.331195 cumulative IPC: 0.330155 (Simulation time: 0 hr 5 min 57 sec) 
updateCurrDst(137651)
updateCurrDst(137660)
updateCurrDst(137739)
updateCurrDst(137821)
updateCurrDst(137846)
updateCurrDst(137859)
updateCurrDst(138084)
updateCurrDst(138098)
updateCurrDst(138201)
updateCurrDst(138253)
updateCurrDst(138269)
updateCurrDst(138293)
updateCurrDst(138294)
updateCurrDst(138821)
updateCurrDst(138890)
updateCurrDst(138910)
updateCurrDst(139027)
updateCurrDst(139053)
updateCurrDst(139078)
updateCurrDst(139085)
updateCurrDst(139103)
updateCurrDst(139192)
updateCurrDst(139343)
updateCurrDst(139574)
updateCurrDst(139627)
updateCurrDst(139850)
updateCurrDst(139859)
Heartbeat CPU 0 instructions: 59000002 cycles: 30169779 heartbeat IPC: 0.331539 cumulative IPC: 0.3305 (Simulation time: 0 hr 6 min 3 sec) 
updateCurrDst(140056)
updateCurrDst(140322)
updateCurrDst(140456)
updateCurrDst(140487)
updateCurrDst(140489)
updateCurrDst(140521)
updateCurrDst(140533)
updateCurrDst(140600)
updateCurrDst(140797)
updateCurrDst(140800)
updateCurrDst(140899)
updateCurrDst(140940)
updateCurrDst(140968)
updateCurrDst(141165)
updateCurrDst(141205)
updateCurrDst(141213)
updateCurrDst(141376)
updateCurrDst(141732)
updateCurrDst(141755)
updateCurrDst(141782)
updateCurrDst(141802)
updateCurrDst(141835)
updateCurrDst(141836)
updateCurrDst(141850)
updateCurrDst(142093)
updateCurrDst(142330)
updateCurrDst(142490)
Heartbeat CPU 0 instructions: 60000000 cycles: 33206940 heartbeat IPC: 0.329254 cumulative IPC: 0.33025 (Simulation time: 0 hr 6 min 10 sec) 
updateCurrDst(142671)
updateCurrDst(142827)
updateCurrDst(142866)
updateCurrDst(143096)
updateCurrDst(143198)
updateCurrDst(143215)
updateCurrDst(143339)
updateCurrDst(143507)
updateCurrDst(143600)
updateCurrDst(143623)
updateCurrDst(143774)
updateCurrDst(143796)
updateCurrDst(143912)
updateCurrDst(144183)
updateCurrDst(144329)
updateCurrDst(144525)
updateCurrDst(144530)
updateCurrDst(144694)
updateCurrDst(144739)
updateCurrDst(144890)
updateCurrDst(144914)
updateCurrDst(145004)
updateCurrDst(145014)
updateCurrDst(145083)
updateCurrDst(145108)
updateCurrDst(145166)
Heartbeat CPU 0 instructions: 61000000 cycles: 36225310 heartbeat IPC: 0.331305 cumulative IPC: 0.330425 (Simulation time: 0 hr 6 min 17 sec) 
updateCurrDst(145401)
updateCurrDst(145452)
updateCurrDst(145698)
updateCurrDst(145765)
updateCurrDst(145957)
updateCurrDst(146081)
updateCurrDst(146112)
updateCurrDst(146129)
updateCurrDst(146222)
updateCurrDst(146344)
updateCurrDst(146461)
updateCurrDst(146508)
updateCurrDst(146628)
updateCurrDst(146652)
updateCurrDst(146872)
updateCurrDst(147045)
updateCurrDst(147188)
updateCurrDst(147264)
updateCurrDst(147276)
updateCurrDst(147279)
updateCurrDst(147397)
updateCurrDst(147456)
updateCurrDst(147475)
updateCurrDst(147484)
updateCurrDst(147528)
updateCurrDst(147586)
updateCurrDst(147661)
Heartbeat CPU 0 instructions: 62000000 cycles: 39258494 heartbeat IPC: 0.329687 cumulative IPC: 0.330319 (Simulation time: 0 hr 6 min 23 sec) 
updateCurrDst(147803)
updateCurrDst(147879)
updateCurrDst(147904)
updateCurrDst(148060)
updateCurrDst(148097)
updateCurrDst(148219)
updateCurrDst(148440)
updateCurrDst(148659)
updateCurrDst(148704)
updateCurrDst(148843)
updateCurrDst(148905)
updateCurrDst(149118)
updateCurrDst(149229)
updateCurrDst(149249)
updateCurrDst(149300)
updateCurrDst(149618)
updateCurrDst(149648)
updateCurrDst(150098)
updateCurrDst(150135)
updateCurrDst(150161)
updateCurrDst(150162)
Heartbeat CPU 0 instructions: 63000001 cycles: 42277826 heartbeat IPC: 0.331199 cumulative IPC: 0.330429 (Simulation time: 0 hr 6 min 29 sec) 
updateCurrDst(150523)
updateCurrDst(150541)
updateCurrDst(150585)
updateCurrDst(150723)
updateCurrDst(150801)
updateCurrDst(150933)
updateCurrDst(151020)
updateCurrDst(151240)
updateCurrDst(151491)
updateCurrDst(151503)
updateCurrDst(151594)
updateCurrDst(151599)
updateCurrDst(151717)
updateCurrDst(151748)
updateCurrDst(151812)
updateCurrDst(152033)
updateCurrDst(152204)
updateCurrDst(152213)
updateCurrDst(152247)
updateCurrDst(152268)
updateCurrDst(152272)
updateCurrDst(152652)
updateCurrDst(152697)
updateCurrDst(152724)
updateCurrDst(152821)
updateCurrDst(152823)
Heartbeat CPU 0 instructions: 64000001 cycles: 45304337 heartbeat IPC: 0.330413 cumulative IPC: 0.330427 (Simulation time: 0 hr 6 min 37 sec) 
updateCurrDst(153010)
updateCurrDst(153137)
updateCurrDst(153546)
updateCurrDst(153695)
updateCurrDst(153747)
updateCurrDst(153830)
updateCurrDst(154090)
updateCurrDst(154096)
updateCurrDst(154244)
updateCurrDst(154449)
updateCurrDst(154464)
updateCurrDst(154571)
updateCurrDst(154749)
updateCurrDst(154829)
updateCurrDst(154893)
updateCurrDst(154963)
updateCurrDst(155020)
updateCurrDst(155146)
updateCurrDst(155262)
updateCurrDst(155277)
updateCurrDst(155490)
updateCurrDst(155506)
Heartbeat CPU 0 instructions: 65000000 cycles: 48360200 heartbeat IPC: 0.327239 cumulative IPC: 0.330106 (Simulation time: 0 hr 6 min 44 sec) 
updateCurrDst(155573)
updateCurrDst(155660)
updateCurrDst(155670)
updateCurrDst(156042)
updateCurrDst(156369)
updateCurrDst(156412)
updateCurrDst(156646)
updateCurrDst(156653)
updateCurrDst(157115)
updateCurrDst(157176)
updateCurrDst(157351)
updateCurrDst(157355)
updateCurrDst(157593)
updateCurrDst(157620)
updateCurrDst(157761)
updateCurrDst(157902)
updateCurrDst(157920)
updateCurrDst(158100)
updateCurrDst(158158)
Heartbeat CPU 0 instructions: 66000000 cycles: 51380746 heartbeat IPC: 0.331066 cumulative IPC: 0.330193 (Simulation time: 0 hr 6 min 51 sec) 
updateCurrDst(158353)
updateCurrDst(158422)
updateCurrDst(158461)
updateCurrDst(158846)
updateCurrDst(159000)
updateCurrDst(159150)
updateCurrDst(159151)
updateCurrDst(159432)
updateCurrDst(159547)
updateCurrDst(159611)
updateCurrDst(159621)
updateCurrDst(159847)
updateCurrDst(159885)
updateCurrDst(160000)
updateCurrDst(160073)
updateCurrDst(160142)
updateCurrDst(160185)
updateCurrDst(160314)
updateCurrDst(160342)
updateCurrDst(160638)
Heartbeat CPU 0 instructions: 67000001 cycles: 54414001 heartbeat IPC: 0.329679 cumulative IPC: 0.33015 (Simulation time: 0 hr 6 min 59 sec) 
updateCurrDst(160844)
updateCurrDst(160865)
updateCurrDst(160965)
updateCurrDst(161039)
updateCurrDst(161160)
updateCurrDst(161259)
updateCurrDst(161357)
updateCurrDst(161460)
updateCurrDst(161485)
updateCurrDst(161512)
updateCurrDst(161613)
updateCurrDst(161669)
updateCurrDst(161714)
updateCurrDst(161901)
updateCurrDst(161927)
updateCurrDst(161987)
updateCurrDst(162057)
updateCurrDst(162064)
updateCurrDst(162480)
updateCurrDst(162667)
updateCurrDst(162727)
updateCurrDst(162776)
updateCurrDst(162825)
updateCurrDst(163090)
updateCurrDst(163205)
Heartbeat CPU 0 instructions: 68000000 cycles: 57441712 heartbeat IPC: 0.330282 cumulative IPC: 0.33016 (Simulation time: 0 hr 7 min 6 sec) 
updateCurrDst(163357)
updateCurrDst(163367)
updateCurrDst(163550)
updateCurrDst(163554)
updateCurrDst(163682)
updateCurrDst(163693)
updateCurrDst(163893)
updateCurrDst(163916)
updateCurrDst(164160)
updateCurrDst(164188)
updateCurrDst(164198)
updateCurrDst(164341)
updateCurrDst(164437)
updateCurrDst(164438)
updateCurrDst(164441)
updateCurrDst(164452)
updateCurrDst(164799)
updateCurrDst(164939)
updateCurrDst(165111)
updateCurrDst(165433)
updateCurrDst(165554)
updateCurrDst(165729)
updateCurrDst(165803)
updateCurrDst(165869)
updateCurrDst(165916)
Heartbeat CPU 0 instructions: 69000001 cycles: 60462216 heartbeat IPC: 0.331071 cumulative IPC: 0.330225 (Simulation time: 0 hr 7 min 13 sec) 
updateCurrDst(165957)
updateCurrDst(166075)
updateCurrDst(166334)
updateCurrDst(166352)
updateCurrDst(166372)
updateCurrDst(166493)
updateCurrDst(166567)
updateCurrDst(166585)
updateCurrDst(166596)
updateCurrDst(166706)
updateCurrDst(166727)
updateCurrDst(166849)
updateCurrDst(167095)
updateCurrDst(167108)
updateCurrDst(167137)
updateCurrDst(167502)
updateCurrDst(167541)
updateCurrDst(167851)
updateCurrDst(167899)
updateCurrDst(168126)
updateCurrDst(168195)
updateCurrDst(168227)
updateCurrDst(168329)
updateCurrDst(168416)
updateCurrDst(168478)
updateCurrDst(168496)
Heartbeat CPU 0 instructions: 70000001 cycles: 63501839 heartbeat IPC: 0.328988 cumulative IPC: 0.330142 (Simulation time: 0 hr 7 min 20 sec) 
updateCurrDst(168639)
updateCurrDst(168727)
updateCurrDst(168769)
updateCurrDst(168777)
updateCurrDst(168791)
updateCurrDst(168800)
updateCurrDst(169062)
updateCurrDst(169197)
updateCurrDst(169252)
updateCurrDst(169317)
updateCurrDst(169513)
updateCurrDst(169547)
updateCurrDst(169570)
updateCurrDst(169638)
updateCurrDst(169702)
updateCurrDst(169894)
updateCurrDst(170153)
updateCurrDst(170316)
updateCurrDst(170331)
updateCurrDst(170462)
updateCurrDst(170559)
updateCurrDst(170732)
updateCurrDst(170902)
updateCurrDst(170917)
updateCurrDst(170921)
updateCurrDst(171072)
Heartbeat CPU 0 instructions: 71000000 cycles: 66517921 heartbeat IPC: 0.331556 cumulative IPC: 0.33023 (Simulation time: 0 hr 7 min 27 sec) 
updateCurrDst(171159)
updateCurrDst(171434)
updateCurrDst(171573)
updateCurrDst(171591)
updateCurrDst(171595)
updateCurrDst(171605)
updateCurrDst(171763)
updateCurrDst(171897)
updateCurrDst(171987)
updateCurrDst(172039)
updateCurrDst(172112)
updateCurrDst(172120)
updateCurrDst(172206)
updateCurrDst(172288)
updateCurrDst(172300)
updateCurrDst(172363)
updateCurrDst(172406)
updateCurrDst(172461)
updateCurrDst(172701)
updateCurrDst(172750)
updateCurrDst(172804)
updateCurrDst(172873)
updateCurrDst(173083)
updateCurrDst(173109)
updateCurrDst(173167)
updateCurrDst(173289)
updateCurrDst(173402)
updateCurrDst(173415)
updateCurrDst(173442)
updateCurrDst(173534)
updateCurrDst(173549)
updateCurrDst(173561)
updateCurrDst(173637)
updateCurrDst(173642)
updateCurrDst(173682)
Heartbeat CPU 0 instructions: 72000000 cycles: 69545929 heartbeat IPC: 0.33025 cumulative IPC: 0.330231 (Simulation time: 0 hr 7 min 35 sec) 
updateCurrDst(173850)
updateCurrDst(173907)
updateCurrDst(173912)
updateCurrDst(174020)
updateCurrDst(174074)
updateCurrDst(174266)
updateCurrDst(174291)
updateCurrDst(174305)
updateCurrDst(174473)
updateCurrDst(174558)
updateCurrDst(174603)
updateCurrDst(174607)
updateCurrDst(174755)
updateCurrDst(174778)
updateCurrDst(174811)
updateCurrDst(174910)
updateCurrDst(174985)
updateCurrDst(175007)
updateCurrDst(175141)
updateCurrDst(175150)
updateCurrDst(175269)
updateCurrDst(175292)
updateCurrDst(175296)
updateCurrDst(175348)
updateCurrDst(175408)
updateCurrDst(175640)
updateCurrDst(175894)
updateCurrDst(175950)
updateCurrDst(176000)
updateCurrDst(176050)
updateCurrDst(176102)
updateCurrDst(176109)
updateCurrDst(176111)
updateCurrDst(176183)
Heartbeat CPU 0 instructions: 73000000 cycles: 72580775 heartbeat IPC: 0.329506 cumulative IPC: 0.330191 (Simulation time: 0 hr 7 min 41 sec) 
updateCurrDst(176392)
updateCurrDst(176463)
updateCurrDst(176496)
updateCurrDst(176523)
updateCurrDst(176532)
updateCurrDst(176548)
updateCurrDst(176816)
updateCurrDst(176873)
updateCurrDst(177259)
updateCurrDst(177323)
updateCurrDst(177367)
updateCurrDst(177382)
updateCurrDst(177436)
updateCurrDst(177623)
updateCurrDst(177714)
updateCurrDst(177744)
updateCurrDst(177963)
updateCurrDst(178050)
updateCurrDst(178064)
updateCurrDst(178119)
updateCurrDst(178160)
updateCurrDst(178314)
updateCurrDst(178341)
updateCurrDst(178387)
updateCurrDst(178442)
updateCurrDst(178629)
Heartbeat CPU 0 instructions: 74000000 cycles: 75599812 heartbeat IPC: 0.331231 cumulative IPC: 0.330246 (Simulation time: 0 hr 7 min 48 sec) 
updateCurrDst(179119)
updateCurrDst(179358)
updateCurrDst(179503)
updateCurrDst(179615)
updateCurrDst(179643)
updateCurrDst(179793)
updateCurrDst(179856)
updateCurrDst(180085)
updateCurrDst(180291)
updateCurrDst(180340)
updateCurrDst(180529)
updateCurrDst(180561)
updateCurrDst(180724)
updateCurrDst(180784)
updateCurrDst(180789)
updateCurrDst(181033)
updateCurrDst(181055)
updateCurrDst(181100)
updateCurrDst(181407)
updateCurrDst(181455)
updateCurrDst(181483)
updateCurrDst(181527)
Heartbeat CPU 0 instructions: 75000000 cycles: 78645780 heartbeat IPC: 0.328303 cumulative IPC: 0.330148 (Simulation time: 0 hr 7 min 55 sec) 
updateCurrDst(181933)
updateCurrDst(182131)
updateCurrDst(182158)
updateCurrDst(182291)
updateCurrDst(182409)
updateCurrDst(182547)
updateCurrDst(182620)
updateCurrDst(182665)
updateCurrDst(182772)
updateCurrDst(182863)
updateCurrDst(182893)
updateCurrDst(182905)
updateCurrDst(182912)
updateCurrDst(183690)
updateCurrDst(183936)
updateCurrDst(184072)
Heartbeat CPU 0 instructions: 76000002 cycles: 81662971 heartbeat IPC: 0.331435 cumulative IPC: 0.330209 (Simulation time: 0 hr 8 min 3 sec) 
updateCurrDst(184511)
updateCurrDst(184676)
updateCurrDst(184691)
updateCurrDst(184736)
updateCurrDst(185006)
updateCurrDst(185020)
updateCurrDst(185096)
updateCurrDst(185412)
updateCurrDst(185414)
updateCurrDst(185420)
updateCurrDst(185462)
updateCurrDst(185761)
updateCurrDst(185843)
updateCurrDst(185871)
updateCurrDst(185873)
updateCurrDst(185884)
updateCurrDst(185907)
updateCurrDst(185968)
updateCurrDst(186121)
updateCurrDst(186156)
updateCurrDst(186157)
updateCurrDst(186244)
updateCurrDst(186258)
updateCurrDst(186263)
updateCurrDst(186421)
updateCurrDst(186444)
updateCurrDst(186448)
updateCurrDst(186545)
updateCurrDst(186548)
updateCurrDst(186675)
updateCurrDst(186713)
updateCurrDst(186766)
updateCurrDst(186771)
Heartbeat CPU 0 instructions: 77000000 cycles: 84686864 heartbeat IPC: 0.330699 cumulative IPC: 0.330231 (Simulation time: 0 hr 8 min 10 sec) 
updateCurrDst(186782)
updateCurrDst(186835)
updateCurrDst(186938)
updateCurrDst(186965)
updateCurrDst(187182)
updateCurrDst(187357)
updateCurrDst(187494)
updateCurrDst(187517)
updateCurrDst(187534)
updateCurrDst(187564)
updateCurrDst(187602)
updateCurrDst(187894)
updateCurrDst(187921)
updateCurrDst(187935)
updateCurrDst(187981)
updateCurrDst(188295)
updateCurrDst(188377)
updateCurrDst(188465)
updateCurrDst(188508)
updateCurrDst(188747)
updateCurrDst(188749)
updateCurrDst(188824)
updateCurrDst(189133)
updateCurrDst(189216)
Heartbeat CPU 0 instructions: 78000000 cycles: 87716032 heartbeat IPC: 0.330124 cumulative IPC: 0.330227 (Simulation time: 0 hr 8 min 18 sec) 
updateCurrDst(189476)
updateCurrDst(189651)
updateCurrDst(189719)
updateCurrDst(189758)
updateCurrDst(189899)
updateCurrDst(190041)
updateCurrDst(190064)
updateCurrDst(190101)
updateCurrDst(190238)
updateCurrDst(190614)
updateCurrDst(190743)
updateCurrDst(190775)
updateCurrDst(190908)
updateCurrDst(190958)
updateCurrDst(190978)
updateCurrDst(191017)
updateCurrDst(191216)
updateCurrDst(191493)
updateCurrDst(191573)
updateCurrDst(191611)
updateCurrDst(191614)
updateCurrDst(191683)
updateCurrDst(191770)
updateCurrDst(191788)
updateCurrDst(191865)
Heartbeat CPU 0 instructions: 79000001 cycles: 90735477 heartbeat IPC: 0.331187 cumulative IPC: 0.330266 (Simulation time: 0 hr 8 min 26 sec) 
updateCurrDst(192012)
updateCurrDst(192030)
updateCurrDst(192078)
updateCurrDst(192324)
updateCurrDst(192438)
updateCurrDst(192527)
updateCurrDst(192598)
updateCurrDst(192666)
updateCurrDst(192709)
updateCurrDst(192714)
updateCurrDst(192839)
updateCurrDst(192943)
updateCurrDst(193297)
updateCurrDst(193425)
updateCurrDst(193456)
updateCurrDst(193525)
updateCurrDst(193946)
updateCurrDst(194140)
updateCurrDst(194204)
updateCurrDst(194294)
Heartbeat CPU 0 instructions: 80000000 cycles: 93771956 heartbeat IPC: 0.329328 cumulative IPC: 0.330229 (Simulation time: 0 hr 8 min 33 sec) 
updateCurrDst(194558)
updateCurrDst(194697)
updateCurrDst(194805)
updateCurrDst(195046)
updateCurrDst(195078)
updateCurrDst(195094)
updateCurrDst(195186)
updateCurrDst(195288)
updateCurrDst(195391)
updateCurrDst(195554)
updateCurrDst(195693)
updateCurrDst(195795)
updateCurrDst(195808)
updateCurrDst(195903)
updateCurrDst(195986)
updateCurrDst(196037)
updateCurrDst(196093)
updateCurrDst(196152)
updateCurrDst(196163)
updateCurrDst(196447)
updateCurrDst(196684)
updateCurrDst(196900)
updateCurrDst(196956)
updateCurrDst(197019)
Heartbeat CPU 0 instructions: 81000002 cycles: 96787835 heartbeat IPC: 0.331579 cumulative IPC: 0.330281 (Simulation time: 0 hr 8 min 40 sec) 
updateCurrDst(197316)
updateCurrDst(197560)
updateCurrDst(197660)
updateCurrDst(197705)
updateCurrDst(197737)
updateCurrDst(197758)
updateCurrDst(197776)
updateCurrDst(197991)
updateCurrDst(198028)
updateCurrDst(198029)
updateCurrDst(198149)
updateCurrDst(198201)
updateCurrDst(198320)
updateCurrDst(198409)
updateCurrDst(198436)
updateCurrDst(198572)
updateCurrDst(199092)
updateCurrDst(199211)
updateCurrDst(199213)
updateCurrDst(199339)
updateCurrDst(199532)
updateCurrDst(199584)
updateCurrDst(199606)
updateCurrDst(199728)
Heartbeat CPU 0 instructions: 82000001 cycles: 99818475 heartbeat IPC: 0.329963 cumulative IPC: 0.330269 (Simulation time: 0 hr 8 min 47 sec) 
updateCurrDst(199809)
updateCurrDst(199827)
updateCurrDst(199911)
updateCurrDst(200154)
updateCurrDst(200208)
updateCurrDst(200285)
updateCurrDst(200290)
updateCurrDst(200305)
updateCurrDst(200402)
updateCurrDst(200490)
updateCurrDst(200501)
updateCurrDst(200843)
updateCurrDst(200874)
updateCurrDst(200879)
updateCurrDst(201011)
updateCurrDst(201113)
updateCurrDst(201174)
updateCurrDst(201444)
updateCurrDst(201466)
updateCurrDst(201545)
updateCurrDst(201889)
updateCurrDst(202000)
updateCurrDst(202037)
updateCurrDst(202107)
updateCurrDst(202112)
updateCurrDst(202185)
updateCurrDst(202317)
Heartbeat CPU 0 instructions: 83000000 cycles: 102833543 heartbeat IPC: 0.331667 cumulative IPC: 0.330319 (Simulation time: 0 hr 8 min 54 sec) 
updateCurrDst(202698)
updateCurrDst(202772)
updateCurrDst(202787)
updateCurrDst(202808)
updateCurrDst(202883)
updateCurrDst(203011)
updateCurrDst(203155)
updateCurrDst(203302)
updateCurrDst(203462)
updateCurrDst(203685)
updateCurrDst(203690)
updateCurrDst(204028)
updateCurrDst(204111)
updateCurrDst(204178)
updateCurrDst(204215)
updateCurrDst(204350)
updateCurrDst(204525)
updateCurrDst(204638)
updateCurrDst(204725)
Heartbeat CPU 0 instructions: 84000003 cycles: 105880436 heartbeat IPC: 0.328204 cumulative IPC: 0.330245 (Simulation time: 0 hr 9 min 1 sec) 
updateCurrDst(204945)
updateCurrDst(205178)
updateCurrDst(205355)
updateCurrDst(205380)
updateCurrDst(205444)
updateCurrDst(205563)
updateCurrDst(205574)
updateCurrDst(205613)
updateCurrDst(205691)
updateCurrDst(205863)
updateCurrDst(205909)
updateCurrDst(206066)
updateCurrDst(206125)
updateCurrDst(206254)
updateCurrDst(206334)
updateCurrDst(206568)
updateCurrDst(206570)
updateCurrDst(206924)
updateCurrDst(206942)
updateCurrDst(207036)
updateCurrDst(207133)
updateCurrDst(207359)
Heartbeat CPU 0 instructions: 85000001 cycles: 108912013 heartbeat IPC: 0.329861 cumulative IPC: 0.330232 (Simulation time: 0 hr 9 min 8 sec) 
updateCurrDst(207622)
updateCurrDst(207658)
updateCurrDst(207795)
updateCurrDst(207846)
updateCurrDst(207909)
updateCurrDst(207923)
updateCurrDst(208048)
updateCurrDst(208174)
updateCurrDst(208202)
updateCurrDst(208485)
updateCurrDst(208655)
updateCurrDst(208710)
updateCurrDst(208764)
updateCurrDst(208811)
updateCurrDst(208865)
updateCurrDst(209021)
updateCurrDst(209131)
updateCurrDst(209509)
updateCurrDst(209527)
updateCurrDst(209551)
updateCurrDst(209789)
updateCurrDst(209853)
updateCurrDst(209860)
updateCurrDst(209969)
updateCurrDst(210025)
updateCurrDst(210163)
updateCurrDst(210167)
Heartbeat CPU 0 instructions: 86000000 cycles: 111931694 heartbeat IPC: 0.33116 cumulative IPC: 0.330262 (Simulation time: 0 hr 9 min 14 sec) 
updateCurrDst(210522)
updateCurrDst(210649)
updateCurrDst(210687)
updateCurrDst(210710)
updateCurrDst(210741)
updateCurrDst(211044)
updateCurrDst(211181)
updateCurrDst(211321)
updateCurrDst(211516)
updateCurrDst(211586)
updateCurrDst(211974)
updateCurrDst(211994)
updateCurrDst(212039)
updateCurrDst(212072)
updateCurrDst(212090)
updateCurrDst(212258)
updateCurrDst(212369)
updateCurrDst(212518)
updateCurrDst(212643)
updateCurrDst(212706)
updateCurrDst(212731)
Heartbeat CPU 0 instructions: 87000001 cycles: 114976556 heartbeat IPC: 0.328422 cumulative IPC: 0.330204 (Simulation time: 0 hr 9 min 20 sec) 
updateCurrDst(212808)
updateCurrDst(212869)
updateCurrDst(213155)
updateCurrDst(213250)
updateCurrDst(213331)
updateCurrDst(213863)
updateCurrDst(214023)
updateCurrDst(214079)
updateCurrDst(214310)
updateCurrDst(214378)
updateCurrDst(214395)
updateCurrDst(214415)
updateCurrDst(214698)
updateCurrDst(214803)
updateCurrDst(214813)
updateCurrDst(214985)
updateCurrDst(215171)
updateCurrDst(215178)
updateCurrDst(215202)
updateCurrDst(215276)
Heartbeat CPU 0 instructions: 88000000 cycles: 117995849 heartbeat IPC: 0.331203 cumulative IPC: 0.330235 (Simulation time: 0 hr 9 min 27 sec) 
updateCurrDst(215512)
updateCurrDst(215648)
updateCurrDst(215650)
updateCurrDst(215675)
updateCurrDst(216033)
updateCurrDst(216124)
updateCurrDst(216492)
updateCurrDst(216532)
updateCurrDst(216545)
updateCurrDst(216635)
updateCurrDst(216672)
updateCurrDst(216681)
updateCurrDst(216772)
updateCurrDst(216894)
updateCurrDst(217100)
updateCurrDst(217104)
updateCurrDst(217182)
updateCurrDst(217277)
updateCurrDst(217500)
updateCurrDst(217553)
updateCurrDst(217686)
updateCurrDst(217721)
updateCurrDst(217771)
updateCurrDst(217860)
updateCurrDst(217937)
updateCurrDst(217949)
Heartbeat CPU 0 instructions: 89000001 cycles: 121023306 heartbeat IPC: 0.330311 cumulative IPC: 0.330237 (Simulation time: 0 hr 9 min 34 sec) 
updateCurrDst(218036)
updateCurrDst(218235)
updateCurrDst(218270)
updateCurrDst(218401)
updateCurrDst(218452)
updateCurrDst(218483)
updateCurrDst(218543)
updateCurrDst(218602)
updateCurrDst(218716)
updateCurrDst(218814)
updateCurrDst(218866)
updateCurrDst(218998)
updateCurrDst(219059)
updateCurrDst(219101)
updateCurrDst(219136)
updateCurrDst(219203)
updateCurrDst(219267)
updateCurrDst(219368)
updateCurrDst(219399)
updateCurrDst(219451)
updateCurrDst(219582)
updateCurrDst(219721)
updateCurrDst(219758)
updateCurrDst(219811)
updateCurrDst(219897)
updateCurrDst(219925)
updateCurrDst(220059)
updateCurrDst(220080)
updateCurrDst(220119)
updateCurrDst(220131)
updateCurrDst(220191)
updateCurrDst(220321)
updateCurrDst(220528)
updateCurrDst(220561)
Heartbeat CPU 0 instructions: 90000001 cycles: 124045157 heartbeat IPC: 0.330923 cumulative IPC: 0.330256 (Simulation time: 0 hr 9 min 40 sec) 
updateCurrDst(220893)
updateCurrDst(220898)
updateCurrDst(220935)
updateCurrDst(220937)
updateCurrDst(220974)
updateCurrDst(221079)
updateCurrDst(221181)
updateCurrDst(221186)
updateCurrDst(221201)
updateCurrDst(221828)
updateCurrDst(221979)
updateCurrDst(221987)
updateCurrDst(222086)
updateCurrDst(222179)
updateCurrDst(222243)
updateCurrDst(222294)
updateCurrDst(222398)
updateCurrDst(222488)
updateCurrDst(222514)
updateCurrDst(222541)
updateCurrDst(222668)
updateCurrDst(222729)
updateCurrDst(222888)
updateCurrDst(222962)
updateCurrDst(222980)
Heartbeat CPU 0 instructions: 91000003 cycles: 127069647 heartbeat IPC: 0.330635 cumulative IPC: 0.330267 (Simulation time: 0 hr 9 min 46 sec) 
updateCurrDst(223178)
updateCurrDst(223263)
updateCurrDst(223278)
updateCurrDst(223359)
updateCurrDst(223540)
updateCurrDst(223561)
updateCurrDst(223567)
updateCurrDst(223663)
updateCurrDst(223743)
updateCurrDst(223804)
updateCurrDst(223970)
updateCurrDst(224009)
updateCurrDst(224186)
updateCurrDst(224299)
updateCurrDst(224586)
updateCurrDst(224619)
updateCurrDst(224800)
updateCurrDst(225046)
updateCurrDst(225528)
Heartbeat CPU 0 instructions: 92000000 cycles: 130095113 heartbeat IPC: 0.330527 cumulative IPC: 0.330274 (Simulation time: 0 hr 9 min 53 sec) 
updateCurrDst(225918)
updateCurrDst(226102)
updateCurrDst(226174)
updateCurrDst(226209)
updateCurrDst(226217)
updateCurrDst(226438)
updateCurrDst(226457)
updateCurrDst(226475)
updateCurrDst(226496)
updateCurrDst(226535)
updateCurrDst(226586)
updateCurrDst(226623)
updateCurrDst(226650)
updateCurrDst(226819)
updateCurrDst(227369)
updateCurrDst(227375)
updateCurrDst(227436)
updateCurrDst(227521)
updateCurrDst(227582)
updateCurrDst(227730)
updateCurrDst(227811)
updateCurrDst(228182)
updateCurrDst(228217)
Heartbeat CPU 0 instructions: 93000000 cycles: 133111579 heartbeat IPC: 0.331514 cumulative IPC: 0.330306 (Simulation time: 0 hr 10 min 0 sec) 
updateCurrDst(228480)
updateCurrDst(228769)
updateCurrDst(228805)
updateCurrDst(229133)
updateCurrDst(229310)
updateCurrDst(229576)
updateCurrDst(229630)
updateCurrDst(229742)
updateCurrDst(229922)
updateCurrDst(230171)
updateCurrDst(230261)
updateCurrDst(230318)
updateCurrDst(230322)
updateCurrDst(230472)
updateCurrDst(230543)
updateCurrDst(230626)
updateCurrDst(230653)
updateCurrDst(230719)
Heartbeat CPU 0 instructions: 94000003 cycles: 136154401 heartbeat IPC: 0.328643 cumulative IPC: 0.330264 (Simulation time: 0 hr 10 min 7 sec) 
updateCurrDst(230942)
updateCurrDst(231022)
updateCurrDst(231036)
updateCurrDst(231174)
updateCurrDst(231455)
updateCurrDst(231658)
updateCurrDst(231676)
updateCurrDst(231746)
updateCurrDst(232030)
updateCurrDst(232066)
updateCurrDst(232122)
updateCurrDst(232320)
updateCurrDst(232342)
updateCurrDst(232394)
updateCurrDst(232534)
updateCurrDst(232634)
updateCurrDst(232768)
updateCurrDst(232810)
updateCurrDst(232841)
updateCurrDst(232913)
updateCurrDst(233001)
updateCurrDst(233138)
updateCurrDst(233190)
updateCurrDst(233245)
updateCurrDst(233270)
updateCurrDst(233322)
updateCurrDst(233408)
updateCurrDst(233439)
updateCurrDst(233473)
updateCurrDst(233538)
Heartbeat CPU 0 instructions: 95000003 cycles: 139171892 heartbeat IPC: 0.331401 cumulative IPC: 0.330292 (Simulation time: 0 hr 10 min 14 sec) 
updateCurrDst(233735)
updateCurrDst(233782)
updateCurrDst(233818)
updateCurrDst(233920)
updateCurrDst(234026)
updateCurrDst(234053)
updateCurrDst(234107)
updateCurrDst(234146)
updateCurrDst(234213)
updateCurrDst(234277)
updateCurrDst(234407)
updateCurrDst(234729)
updateCurrDst(234769)
updateCurrDst(234948)
updateCurrDst(234980)
updateCurrDst(235110)
updateCurrDst(235151)
updateCurrDst(235213)
updateCurrDst(235230)
updateCurrDst(235499)
updateCurrDst(235640)
updateCurrDst(235642)
updateCurrDst(235655)
updateCurrDst(235787)
updateCurrDst(235955)
updateCurrDst(235970)
updateCurrDst(236100)
Heartbeat CPU 0 instructions: 96000003 cycles: 142198653 heartbeat IPC: 0.330386 cumulative IPC: 0.330294 (Simulation time: 0 hr 10 min 21 sec) 
updateCurrDst(236170)
updateCurrDst(236306)
updateCurrDst(236430)
updateCurrDst(236845)
updateCurrDst(236875)
updateCurrDst(236904)
updateCurrDst(237004)
updateCurrDst(237369)
updateCurrDst(237496)
updateCurrDst(237519)
updateCurrDst(237553)
updateCurrDst(237578)
updateCurrDst(237594)
updateCurrDst(237600)
updateCurrDst(237601)
updateCurrDst(237728)
updateCurrDst(237747)
updateCurrDst(238075)
updateCurrDst(238104)
updateCurrDst(238324)
updateCurrDst(238380)
updateCurrDst(238502)
updateCurrDst(238562)
updateCurrDst(238656)
updateCurrDst(238723)
Heartbeat CPU 0 instructions: 97000000 cycles: 145283763 heartbeat IPC: 0.324137 cumulative IPC: 0.330145 (Simulation time: 0 hr 10 min 28 sec) 
updateCurrDst(238760)
updateCurrDst(238814)
updateCurrDst(238876)
updateCurrDst(238939)
updateCurrDst(238985)
updateCurrDst(239019)
updateCurrDst(239080)
updateCurrDst(239220)
updateCurrDst(239355)
updateCurrDst(239549)
updateCurrDst(239609)
updateCurrDst(239653)
updateCurrDst(239701)
updateCurrDst(239814)
updateCurrDst(239982)
updateCurrDst(240041)
updateCurrDst(240161)
updateCurrDst(240188)
updateCurrDst(240277)
updateCurrDst(240401)
updateCurrDst(240431)
updateCurrDst(240585)
updateCurrDst(240630)
updateCurrDst(240694)
updateCurrDst(240746)
updateCurrDst(240814)
updateCurrDst(240825)
updateCurrDst(240877)
updateCurrDst(241087)
updateCurrDst(241225)
updateCurrDst(241248)
Heartbeat CPU 0 instructions: 98000000 cycles: 148361955 heartbeat IPC: 0.324866 cumulative IPC: 0.33002 (Simulation time: 0 hr 10 min 34 sec) 
updateCurrDst(241379)
updateCurrDst(241428)
updateCurrDst(241464)
updateCurrDst(241648)
updateCurrDst(241662)
updateCurrDst(241846)
updateCurrDst(241875)
updateCurrDst(241944)
updateCurrDst(241961)
updateCurrDst(242030)
updateCurrDst(242103)
updateCurrDst(242123)
updateCurrDst(242143)
updateCurrDst(242265)
updateCurrDst(242280)
updateCurrDst(242306)
updateCurrDst(242537)
updateCurrDst(242658)
updateCurrDst(242900)
updateCurrDst(242914)
updateCurrDst(242920)
updateCurrDst(242948)
updateCurrDst(243025)
updateCurrDst(243151)
updateCurrDst(243256)
updateCurrDst(243343)
updateCurrDst(243453)
updateCurrDst(243646)
updateCurrDst(243677)
updateCurrDst(243792)
updateCurrDst(243915)
Heartbeat CPU 0 instructions: 99000000 cycles: 151428396 heartbeat IPC: 0.326111 cumulative IPC: 0.32993 (Simulation time: 0 hr 10 min 42 sec) 
updateCurrDst(244018)
updateCurrDst(244036)
updateCurrDst(244099)
updateCurrDst(244161)
updateCurrDst(244193)
updateCurrDst(244255)
updateCurrDst(244314)
updateCurrDst(244405)
updateCurrDst(244570)
updateCurrDst(244708)
updateCurrDst(244712)
updateCurrDst(244715)
updateCurrDst(244845)
updateCurrDst(244994)
updateCurrDst(245047)
updateCurrDst(245084)
updateCurrDst(245268)
updateCurrDst(245277)
updateCurrDst(245394)
updateCurrDst(245490)
updateCurrDst(245592)
updateCurrDst(245626)
updateCurrDst(245657)
updateCurrDst(245720)
updateCurrDst(245763)
updateCurrDst(245769)
updateCurrDst(245814)
updateCurrDst(245916)
updateCurrDst(245979)
updateCurrDst(246188)
updateCurrDst(246245)
updateCurrDst(246322)
updateCurrDst(246373)
updateCurrDst(246461)
updateCurrDst(246467)
updateCurrDst(246495)
updateCurrDst(246515)
Heartbeat CPU 0 instructions: 100000001 cycles: 154492984 heartbeat IPC: 0.326308 cumulative IPC: 0.329849 (Simulation time: 0 hr 10 min 49 sec) 
updateCurrDst(246553)
updateCurrDst(246703)
updateCurrDst(246736)
updateCurrDst(246950)
updateCurrDst(246992)
updateCurrDst(247018)
updateCurrDst(247257)
updateCurrDst(247335)
updateCurrDst(247398)
updateCurrDst(247425)
updateCurrDst(247502)
updateCurrDst(247686)
updateCurrDst(247894)
updateCurrDst(247987)
updateCurrDst(248040)
updateCurrDst(248101)
updateCurrDst(248150)
updateCurrDst(248237)
updateCurrDst(248390)
updateCurrDst(248620)
updateCurrDst(248720)
updateCurrDst(248734)
updateCurrDst(248776)
updateCurrDst(248857)
updateCurrDst(248878)
updateCurrDst(248976)
updateCurrDst(249035)
Heartbeat CPU 0 instructions: 101000001 cycles: 157568485 heartbeat IPC: 0.32515 cumulative IPC: 0.329745 (Simulation time: 0 hr 10 min 56 sec) 
updateCurrDst(249398)
updateCurrDst(249526)
updateCurrDst(249541)
updateCurrDst(249559)
updateCurrDst(249863)
updateCurrDst(249947)
updateCurrDst(250025)
updateCurrDst(250050)
updateCurrDst(250187)
updateCurrDst(250220)
updateCurrDst(250345)
updateCurrDst(250442)
updateCurrDst(250458)
updateCurrDst(250715)
updateCurrDst(250777)
updateCurrDst(250798)
updateCurrDst(250868)
updateCurrDst(250874)
updateCurrDst(250968)
updateCurrDst(251112)
updateCurrDst(251427)
updateCurrDst(251435)
updateCurrDst(251565)
Heartbeat CPU 0 instructions: 102000002 cycles: 160640209 heartbeat IPC: 0.32555 cumulative IPC: 0.329655 (Simulation time: 0 hr 11 min 5 sec) 
updateCurrDst(252133)
updateCurrDst(252203)
updateCurrDst(252246)
updateCurrDst(252350)
updateCurrDst(252500)
updateCurrDst(252507)
updateCurrDst(252724)
updateCurrDst(252733)
updateCurrDst(252965)
updateCurrDst(253047)
updateCurrDst(253128)
updateCurrDst(253152)
updateCurrDst(253177)
updateCurrDst(253451)
updateCurrDst(253490)
updateCurrDst(253557)
updateCurrDst(253691)
updateCurrDst(253743)
updateCurrDst(254206)
updateCurrDst(254269)
updateCurrDst(254298)
updateCurrDst(254299)
Heartbeat CPU 0 instructions: 103000000 cycles: 163711780 heartbeat IPC: 0.325566 cumulative IPC: 0.329569 (Simulation time: 0 hr 11 min 13 sec) 
updateCurrDst(254329)
updateCurrDst(254532)
updateCurrDst(254647)
updateCurrDst(254667)
updateCurrDst(254785)
updateCurrDst(254947)
updateCurrDst(254998)
updateCurrDst(255001)
updateCurrDst(255087)
updateCurrDst(255143)
updateCurrDst(255184)
updateCurrDst(255273)
updateCurrDst(255600)
updateCurrDst(255618)
updateCurrDst(255797)
updateCurrDst(255895)
updateCurrDst(255999)
updateCurrDst(256142)
updateCurrDst(256224)
updateCurrDst(256278)
updateCurrDst(256420)
updateCurrDst(256498)
updateCurrDst(256593)
updateCurrDst(256597)
updateCurrDst(256924)
Heartbeat CPU 0 instructions: 104000000 cycles: 166782545 heartbeat IPC: 0.325652 cumulative IPC: 0.329488 (Simulation time: 0 hr 11 min 21 sec) 
updateCurrDst(257127)
updateCurrDst(257157)
updateCurrDst(257247)
updateCurrDst(257254)
updateCurrDst(257264)
updateCurrDst(257504)
updateCurrDst(257535)
updateCurrDst(257638)
updateCurrDst(257820)
updateCurrDst(258116)
updateCurrDst(258149)
updateCurrDst(258152)
updateCurrDst(258266)
updateCurrDst(258319)
updateCurrDst(258326)
updateCurrDst(258524)
updateCurrDst(258542)
updateCurrDst(258591)
updateCurrDst(258632)
updateCurrDst(258680)
updateCurrDst(258873)
updateCurrDst(258889)
updateCurrDst(258913)
updateCurrDst(258940)
updateCurrDst(258988)
updateCurrDst(259048)
updateCurrDst(259061)
updateCurrDst(259077)
updateCurrDst(259096)
updateCurrDst(259101)
updateCurrDst(259205)
updateCurrDst(259227)
updateCurrDst(259376)
updateCurrDst(259470)
updateCurrDst(259492)
updateCurrDst(259506)
Heartbeat CPU 0 instructions: 105000001 cycles: 169860926 heartbeat IPC: 0.324846 cumulative IPC: 0.329394 (Simulation time: 0 hr 11 min 29 sec) 
updateCurrDst(259589)
updateCurrDst(259707)
updateCurrDst(259730)
updateCurrDst(259832)
updateCurrDst(259842)
updateCurrDst(260016)
updateCurrDst(260087)
updateCurrDst(260115)
updateCurrDst(260136)
updateCurrDst(260144)
updateCurrDst(260178)
updateCurrDst(260179)
updateCurrDst(260291)
updateCurrDst(260350)
updateCurrDst(260572)
updateCurrDst(260723)
updateCurrDst(260926)
updateCurrDst(260965)
updateCurrDst(260969)
updateCurrDst(260982)
updateCurrDst(261118)
updateCurrDst(261278)
updateCurrDst(261380)
updateCurrDst(261522)
updateCurrDst(261655)
updateCurrDst(261707)
updateCurrDst(261728)
updateCurrDst(262011)
updateCurrDst(262098)
Heartbeat CPU 0 instructions: 106000000 cycles: 172932497 heartbeat IPC: 0.325566 cumulative IPC: 0.329318 (Simulation time: 0 hr 11 min 35 sec) 
updateCurrDst(262129)
*** Reached end of trace for Core: 0 Repeating trace: tracer/pull_u18_k2.xzafter: 106015477
PIN_registerGraphs(random_u18_k2.sg,1)
Graphh Number of Nodes: 262144
Heartbeat CPU 0 instructions: 107000001 cycles: 175988139 heartbeat IPC: 0.327264 cumulative IPC: 0.329278 (Simulation time: 0 hr 11 min 43 sec) 
Heartbeat CPU 0 instructions: 108000001 cycles: 177488143 heartbeat IPC: 0.666665 cumulative IPC: 0.332453 (Simulation time: 0 hr 11 min 47 sec) 
Heartbeat CPU 0 instructions: 109000001 cycles: 178988139 heartbeat IPC: 0.666668 cumulative IPC: 0.335568 (Simulation time: 0 hr 11 min 51 sec) 
Heartbeat CPU 0 instructions: 110000000 cycles: 180490135 heartbeat IPC: 0.66578 cumulative IPC: 0.338621 (Simulation time: 0 hr 11 min 54 sec) 
Finished CPU 0 instructions: 55000000 cycles: 162423257 cumulative IPC: 0.338621 (Simulation time: 0 hr 11 min 54 sec) 

ChampSim completed all CPUs

Region of Interest Statistics

CPU 0 cumulative IPC: 0.338621 instructions: 55000000 cycles: 162423257

Total ROB STALLS:                   20218532
STLB MISS ROB STALLS:                    987
L1D  LOAD MISS ROB STALLS:            569134  Translation MISS ROB STALLS:             0
L2C  LOAD MISS ROB STALLS:            360574  Translation MISS ROB STALLS:             0
LLC  LOAD MISS ROB STALLS:             61536  Translation MISS ROB STALLS:             0

ITLB TOTAL     ACCESS:           7820463  HIT:    7820430  MISS:         33  HIT %:    99.9996  MISS %: 0.00042197   MPKI: 0.0006
ITLB LOAD TRANSLATION ACCESS:    7820463  HIT:    7820430  MISS:         33  HIT %:    99.9996  MISS %: 0.00042197   MPKI: 0.0006
ITLB AVERAGE MISS LATENCY:        215.03 cycles
ITLB RQ ACCESS:     8626019	FORWARD:           0	MERGED:       805555	TO_CACHE:    7820464

DTLB TOTAL     ACCESS:          16346823  HIT:   15937600  MISS:     409223  HIT %:    97.4966  MISS %:    2.50338   MPKI: 7.44042
DTLB LOAD TRANSLATION ACCESS:   16346823  HIT:   15937600  MISS:     409223  HIT %:    97.4966  MISS %:    2.50338   MPKI: 7.44042
DTLB AVERAGE MISS LATENCY:       9.59666 cycles
DTLB RQ ACCESS:    22844397	FORWARD:           0	MERGED:      6495917	TO_CACHE:   16348480

STLB TOTAL     ACCESS:            409256  HIT:     408111  MISS:       1145  HIT %:    99.7202  MISS %:   0.279776   MPKI: 0.0208182
STLB LOAD TRANSLATION ACCESS:     409256  HIT:     408111  MISS:       1145  HIT %:    99.7202  MISS %:   0.279776   MPKI: 0.0208182
STLB AVERAGE MISS LATENCY:       219.186 cycles
STLB RQ ACCESS:      409256	FORWARD:           0	MERGED:            0	TO_CACHE:     409256

PSCL5 TOTAL     ACCESS:              1145  HIT:       1145  MISS:          0  HIT %:        100  MISS %:          0   MPKI: 0
PSCL5 LOAD TRANSLATION ACCESS:       1145  HIT:       1145  MISS:          0  HIT %:        100  MISS %:          0   MPKI: 0

PSCL4 TOTAL     ACCESS:              1145  HIT:       1145  MISS:          0  HIT %:        100  MISS %:          0   MPKI: 0
PSCL4 LOAD TRANSLATION ACCESS:       1145  HIT:       1145  MISS:          0  HIT %:        100  MISS %:          0   MPKI: 0

PSCL3 TOTAL     ACCESS:              1145  HIT:       1145  MISS:          0  HIT %:        100  MISS %:          0   MPKI: 0
PSCL3 LOAD TRANSLATION ACCESS:       1145  HIT:       1145  MISS:          0  HIT %:        100  MISS %:          0   MPKI: 0

PSCL2 TOTAL     ACCESS:              1145  HIT:       1145  MISS:          0  HIT %:        100  MISS %:          0   MPKI: 0
PSCL2 LOAD TRANSLATION ACCESS:       1145  HIT:       1145  MISS:          0  HIT %:        100  MISS %:          0   MPKI: 0

L1D TOTAL     ACCESS:          22673906  HIT:   22077094  MISS:     596812  HIT %:    97.3678  MISS %:    2.63215   MPKI: 10.8511  USED:      83043  UNUSED:     513769
L1D LOAD      ACCESS:          10006684  HIT:    9437441  MISS:     569243  HIT %:    94.3114  MISS %:    5.68863   MPKI: 10.3499  USED:      82996  UNUSED:     487014
L1D RFO       ACCESS:          12667222  HIT:   12639653  MISS:      27569  HIT %:    99.7824  MISS %:    0.21764   MPKI: 0.501255
L1D PTL1 TRANSLATION ACCESS:          0  HIT:          0  MISS:          0  HIT %:       -nan  MISS %:       -nan   MPKI: 0
L1D PTL2 TRANSLATION ACCESS:          0  HIT:          0  MISS:          0  HIT %:       -nan  MISS %:       -nan   MPKI: 0
L1D PTL3 TRANSLATION ACCESS:          0  HIT:          0  MISS:          0  HIT %:       -nan  MISS %:       -nan   MPKI: 0
L1D PTL4 TRANSLATION ACCESS:          0  HIT:          0  MISS:          0  HIT %:       -nan  MISS %:       -nan   MPKI: 0
L1D PTL5 TRANSLATION ACCESS:          0  HIT:          0  MISS:          0  HIT %:       -nan  MISS %:       -nan   MPKI: 0
L1D TOTAL EVICTIONS:             596812  TRANSLATION EVICTIONS:          0  TRANSLATION EVICTING TRANSALTION:          0  TRANSLATION EVICTING LOAD:          0  LOAD EVICTING TRANSALTION:          0  LOAD EVICTING LOAD:      568981
L1D AVERAGE MISS LATENCY:       48.9259 cycles  AVERAGE LOAD MISS LATENCY:       46.8331 cycles  AVERAGE LOAD TRANSLATION MISS LATENCY:          -nan cycles
L1D RQ ACCESS:    13547770	FORWARD:           0	MERGED:      2294620	TO_CACHE:   10006736
L1D WQ ACCESS:    13114527	FORWARD:     1246414	MERGED:       276866	TO_CACHE:   12837661

L1I TOTAL     ACCESS:           8626005  HIT:    8625810  MISS:        195  HIT %:    99.9977  MISS %: 0.00226061   MPKI: 0.00354545
L1I LOAD      ACCESS:           8626005  HIT:    8625810  MISS:        195  HIT %:    99.9977  MISS %: 0.00226061   MPKI: 0.00354545
L1I AVERAGE MISS LATENCY:       192.185 cycles
L1I RQ ACCESS:    13444379	FORWARD:           0	MERGED:      4818360	TO_CACHE:    8626019

L2C TOTAL     ACCESS:            632195  HIT:     243905  MISS:     388290  HIT %:    38.5807  MISS %:    61.4193   MPKI: 7.05982  USED:     126014  UNUSED:     262276
L2C LOAD      ACCESS:            569438  HIT:     208586  MISS:     360852  HIT %:    36.6302  MISS %:    63.3698   MPKI: 6.56095  USED:     126001  UNUSED:     243016
L2C RFO       ACCESS:             27569  HIT:        139  MISS:      27430  HIT %:   0.504189  MISS %:    99.4958   MPKI: 0.498727
L2C WRITEBACK ACCESS:             35188  HIT:      35180  MISS:          8  HIT %:    99.9773  MISS %:   0.022735   MPKI: 0.000145455
L2C PTL1 TRANSLATION ACCESS:          0  HIT:          0  MISS:          0  HIT %:       -nan  MISS %:       -nan   MPKI: 0
L2C PTL2 TRANSLATION ACCESS:          0  HIT:          0  MISS:          0  HIT %:       -nan  MISS %:       -nan   MPKI: 0
L2C PTL3 TRANSLATION ACCESS:          0  HIT:          0  MISS:          0  HIT %:       -nan  MISS %:       -nan   MPKI: 0
L2C PTL4 TRANSLATION ACCESS:          0  HIT:          0  MISS:          0  HIT %:       -nan  MISS %:       -nan   MPKI: 0
L2C PTL5 TRANSLATION ACCESS:          0  HIT:          0  MISS:          0  HIT %:       -nan  MISS %:       -nan   MPKI: 0
L2C TOTAL EVICTIONS:             388290  TRANSLATION EVICTIONS:          0  TRANSLATION EVICTING TRANSALTION:          0  TRANSLATION EVICTING LOAD:          0  LOAD EVICTING TRANSALTION:          0  LOAD EVICTING LOAD:      360812
L2C AVERAGE MISS LATENCY:       52.2344 cycles  AVERAGE LOAD MISS LATENCY:       50.3128 cycles  AVERAGE LOAD TRANSLATION MISS LATENCY:          -nan cycles
L2C RQ ACCESS:      597008	FORWARD:           0	MERGED:            0	TO_CACHE:     597008
L2C WQ ACCESS:       35188	FORWARD:           0	MERGED:            0	TO_CACHE:      35188

LLC TOTAL     ACCESS:            416175  HIT:     346264  MISS:      69911  HIT %:    83.2015  MISS %:    16.7985   MPKI: 1.27111  USED:          0  UNUSED:          0
LLC LOAD      ACCESS:            360852  HIT:     299046  MISS:      61806  HIT %:    82.8722  MISS %:    17.1278   MPKI: 1.12375  USED:          0  UNUSED:          0
LLC RFO       ACCESS:             27430  HIT:      19456  MISS:       7974  HIT %:    70.9296  MISS %:    29.0704   MPKI: 0.144982
LLC WRITEBACK ACCESS:             27893  HIT:      27762  MISS:        131  HIT %:    99.5303  MISS %:   0.469652   MPKI: 0.00238182
LLC PTL1 TRANSLATION ACCESS:          0  HIT:          0  MISS:          0  HIT %:       -nan  MISS %:       -nan   MPKI: 0
LLC PTL2 TRANSLATION ACCESS:          0  HIT:          0  MISS:          0  HIT %:       -nan  MISS %:       -nan   MPKI: 0
LLC PTL3 TRANSLATION ACCESS:          0  HIT:          0  MISS:          0  HIT %:       -nan  MISS %:       -nan   MPKI: 0
LLC PTL4 TRANSLATION ACCESS:          0  HIT:          0  MISS:          0  HIT %:       -nan  MISS %:       -nan   MPKI: 0
LLC PTL5 TRANSLATION ACCESS:          0  HIT:          0  MISS:          0  HIT %:       -nan  MISS %:       -nan   MPKI: 0
LLC TOTAL EVICTIONS:                  0  TRANSLATION EVICTIONS:          0  TRANSLATION EVICTING TRANSALTION:          0  TRANSLATION EVICTING LOAD:          0  LOAD EVICTING TRANSALTION:          0  LOAD EVICTING LOAD:           0
LLC AVERAGE MISS LATENCY:       123.491 cycles  AVERAGE LOAD MISS LATENCY:       118.591 cycles  AVERAGE LOAD TRANSLATION MISS LATENCY:          -nan cycles
LLC RQ ACCESS:      388283	FORWARD:           0	MERGED:            0	TO_CACHE:     388283
LLC WQ ACCESS:       27893	FORWARD:           0	MERGED:            0	TO_CACHE:      27893


RAW hits: 10227400
Loads Generated: 23775172
Loads sent to L1D: 13547770
Stores Generated: 13114530
Stores sent to L1D: 13114527
Major fault: 0 Minor fault: 2274
Allocated PAGES: 2274
IRREG DATA L1D ACCESS: 1251307
L2C ACCESSES: 1021326
L2C MISSES: 610739

DRAM Statistics
 CHANNEL 0
 RQ ROW_BUFFER_HIT:      33011  ROW_BUFFER_MISS:      37914
 DBUS_CONGESTED:          0
 WQ ROW_BUFFER_HIT:       2133  ROW_BUFFER_MISS:       9232  FULL:          0

 AVG_CONGESTED_CYCLE: -

CPU 0 Branch Prediction Accuracy: 98.1782% MPKI: 2.35525 Average ROB Occupancy at Mispredict: 17.6928
Branch types
NOT_BRANCH: 47889171 87.0712%
BRANCH_DIRECT_JUMP: 0 0%
BRANCH_INDIRECT: 1076201 1.95673%
BRANCH_CONDITIONAL: 0 0%
BRANCH_DIRECT_CALL: 132536 0.240975%
BRANCH_INDIRECT_CALL: 2146666 3.90303%
BRANCH_RETURN: 2279197 4.14399%
BRANCH_OTHER: 1475880 2.68342%

DRAM PAGES: 1048576
Allocated PAGES: 2274
