
*** ChampSim Multicore Out-of-Order Simulator ***

Warmup Instructions: 55000000
Simulation Instructions: 55000000
Number of CPUs: 1
LLC sets: 2048
LLC ways: 16
Off-chip DRAM Size: 4096 MB Channels: 1 Width: 64-bit Data Rate: 6400 MT/s
CPU 0 runs tracer/pull_u18_k2.xz
.xz
BTB has LRU replacement policy
ITLB has LRU replacement policy
DTLB has LRU replacement policy
STLB has LRU replacement policy
L1I has LRU replacement policy
L1D has LRU replacement policy
L2C has LRU replacement policy
Initialize DRRIP state for LLC
PIN_registerGraphs(random_u18_k2.sg,1)
Graphh Number of Nodes: 262144
Heartbeat CPU 0 instructions: 1000000 cycles: 347953 heartbeat IPC: 2.87395 cumulative IPC: 2.87395 (Simulation time: 0 hr 0 min 3 sec) 
Heartbeat CPU 0 instructions: 2000001 cycles: 681286 heartbeat IPC: 3.00001 cumulative IPC: 2.93563 (Simulation time: 0 hr 0 min 5 sec) 
Heartbeat CPU 0 instructions: 3000000 cycles: 1014554 heartbeat IPC: 3.00059 cumulative IPC: 2.95696 (Simulation time: 0 hr 0 min 8 sec) 
Heartbeat CPU 0 instructions: 4000003 cycles: 1347889 heartbeat IPC: 2.99999 cumulative IPC: 2.96761 (Simulation time: 0 hr 0 min 10 sec) 
Heartbeat CPU 0 instructions: 5000003 cycles: 1681222 heartbeat IPC: 3 cumulative IPC: 2.97403 (Simulation time: 0 hr 0 min 12 sec) 
PIN_updateRegBaseBound( 94507968229584, 94507969278160)
updateCurrDst(8)
updateCurrDst(237)
updateCurrDst(333)
updateCurrDst(347)
updateCurrDst(505)
updateCurrDst(712)
updateCurrDst(859)
updateCurrDst(897)
updateCurrDst(899)
updateCurrDst(995)
updateCurrDst(1033)
updateCurrDst(1037)
updateCurrDst(1182)
updateCurrDst(1442)
updateCurrDst(1447)
updateCurrDst(1594)
updateCurrDst(1667)
updateCurrDst(1781)
updateCurrDst(1783)
updateCurrDst(1873)
updateCurrDst(1938)
updateCurrDst(1944)
updateCurrDst(2116)
Heartbeat CPU 0 instructions: 6000001 cycles: 2008664 heartbeat IPC: 3.05397 cumulative IPC: 2.98706 (Simulation time: 0 hr 0 min 16 sec) 
updateCurrDst(2382)
updateCurrDst(2415)
updateCurrDst(2440)
updateCurrDst(2452)
updateCurrDst(2594)
updateCurrDst(2727)
updateCurrDst(2866)
updateCurrDst(2874)
updateCurrDst(2968)
updateCurrDst(3052)
updateCurrDst(3189)
updateCurrDst(3332)
updateCurrDst(3438)
updateCurrDst(3501)
updateCurrDst(3580)
updateCurrDst(3793)
updateCurrDst(3848)
updateCurrDst(3860)
updateCurrDst(3928)
updateCurrDst(3995)
updateCurrDst(4004)
updateCurrDst(4050)
updateCurrDst(4091)
updateCurrDst(4095)
updateCurrDst(4162)
updateCurrDst(4551)
updateCurrDst(4714)
updateCurrDst(4827)
Heartbeat CPU 0 instructions: 7000003 cycles: 2336415 heartbeat IPC: 3.0511 cumulative IPC: 2.99604 (Simulation time: 0 hr 0 min 20 sec) 
updateCurrDst(4989)
updateCurrDst(5082)
updateCurrDst(5235)
updateCurrDst(5299)
updateCurrDst(5459)
updateCurrDst(5525)
updateCurrDst(5548)
updateCurrDst(5676)
updateCurrDst(5742)
updateCurrDst(5848)
updateCurrDst(6052)
updateCurrDst(6138)
updateCurrDst(6287)
updateCurrDst(6347)
updateCurrDst(6351)
updateCurrDst(6396)
updateCurrDst(6494)
updateCurrDst(6635)
updateCurrDst(6706)
updateCurrDst(6824)
updateCurrDst(7284)
updateCurrDst(7460)
updateCurrDst(7485)
Heartbeat CPU 0 instructions: 8000002 cycles: 2664018 heartbeat IPC: 3.05247 cumulative IPC: 3.00298 (Simulation time: 0 hr 0 min 24 sec) 
updateCurrDst(7588)
updateCurrDst(7651)
updateCurrDst(7782)
updateCurrDst(7951)
updateCurrDst(8048)
updateCurrDst(8066)
updateCurrDst(8115)
updateCurrDst(8394)
updateCurrDst(8595)
updateCurrDst(8702)
updateCurrDst(8802)
updateCurrDst(8807)
updateCurrDst(8819)
updateCurrDst(8917)
updateCurrDst(8927)
updateCurrDst(9165)
updateCurrDst(9261)
updateCurrDst(9321)
updateCurrDst(9482)
updateCurrDst(9497)
updateCurrDst(9587)
updateCurrDst(9603)
updateCurrDst(9952)
Heartbeat CPU 0 instructions: 9000001 cycles: 2991672 heartbeat IPC: 3.052 cumulative IPC: 3.00835 (Simulation time: 0 hr 0 min 28 sec) 
updateCurrDst(10218)
updateCurrDst(10244)
updateCurrDst(10275)
updateCurrDst(10351)
updateCurrDst(10466)
updateCurrDst(10574)
updateCurrDst(10854)
updateCurrDst(10888)
updateCurrDst(11436)
updateCurrDst(11482)
updateCurrDst(11795)
updateCurrDst(11848)
updateCurrDst(11998)
updateCurrDst(12219)
updateCurrDst(12322)
updateCurrDst(12350)
updateCurrDst(12378)
updateCurrDst(12533)
updateCurrDst(12588)
updateCurrDst(12617)
updateCurrDst(12737)
Heartbeat CPU 0 instructions: 10000001 cycles: 3319428 heartbeat IPC: 3.05105 cumulative IPC: 3.01257 (Simulation time: 0 hr 0 min 32 sec) 
updateCurrDst(12752)
updateCurrDst(12758)
updateCurrDst(12788)
updateCurrDst(12845)
updateCurrDst(12998)
updateCurrDst(13071)
updateCurrDst(13198)
updateCurrDst(13255)
updateCurrDst(13326)
updateCurrDst(13438)
updateCurrDst(13440)
updateCurrDst(13479)
updateCurrDst(13488)
updateCurrDst(13541)
updateCurrDst(13652)
updateCurrDst(13711)
updateCurrDst(13721)
updateCurrDst(13738)
updateCurrDst(13746)
updateCurrDst(13789)
updateCurrDst(13926)
updateCurrDst(14129)
updateCurrDst(14138)
updateCurrDst(14178)
updateCurrDst(14263)
updateCurrDst(14316)
updateCurrDst(14335)
updateCurrDst(14479)
updateCurrDst(14513)
updateCurrDst(14551)
updateCurrDst(14581)
updateCurrDst(14727)
updateCurrDst(14787)
updateCurrDst(14835)
updateCurrDst(14859)
updateCurrDst(14934)
updateCurrDst(14953)
updateCurrDst(14957)
updateCurrDst(15016)
updateCurrDst(15049)
updateCurrDst(15056)
updateCurrDst(15078)
updateCurrDst(15082)
updateCurrDst(15194)
Heartbeat CPU 0 instructions: 11000000 cycles: 3647284 heartbeat IPC: 3.05012 cumulative IPC: 3.01594 (Simulation time: 0 hr 0 min 36 sec) 
updateCurrDst(15482)
updateCurrDst(15486)
updateCurrDst(15772)
updateCurrDst(15807)
updateCurrDst(15988)
updateCurrDst(16058)
updateCurrDst(16135)
updateCurrDst(16249)
updateCurrDst(16251)
updateCurrDst(16289)
updateCurrDst(16337)
updateCurrDst(16535)
updateCurrDst(16640)
updateCurrDst(16694)
updateCurrDst(16845)
updateCurrDst(17120)
updateCurrDst(17194)
updateCurrDst(17222)
updateCurrDst(17451)
updateCurrDst(17482)
updateCurrDst(17782)
updateCurrDst(17809)
updateCurrDst(17894)
updateCurrDst(17918)
Heartbeat CPU 0 instructions: 12000000 cycles: 3974887 heartbeat IPC: 3.05248 cumulative IPC: 3.01895 (Simulation time: 0 hr 0 min 40 sec) 
updateCurrDst(17967)
updateCurrDst(18081)
updateCurrDst(18261)
updateCurrDst(18274)
updateCurrDst(18385)
updateCurrDst(18402)
updateCurrDst(18479)
updateCurrDst(18570)
updateCurrDst(18989)
updateCurrDst(19011)
updateCurrDst(19015)
updateCurrDst(19247)
updateCurrDst(19364)
updateCurrDst(19368)
updateCurrDst(19378)
updateCurrDst(19460)
updateCurrDst(19580)
updateCurrDst(19801)
updateCurrDst(19895)
updateCurrDst(20039)
updateCurrDst(20080)
updateCurrDst(20132)
Heartbeat CPU 0 instructions: 13000001 cycles: 4302447 heartbeat IPC: 3.05288 cumulative IPC: 3.02154 (Simulation time: 0 hr 0 min 44 sec) 
updateCurrDst(20788)
updateCurrDst(20893)
updateCurrDst(20959)
updateCurrDst(21020)
updateCurrDst(21112)
updateCurrDst(21199)
updateCurrDst(21255)
updateCurrDst(21516)
updateCurrDst(21781)
updateCurrDst(21917)
updateCurrDst(22143)
updateCurrDst(22222)
updateCurrDst(22233)
updateCurrDst(22244)
updateCurrDst(22312)
updateCurrDst(22402)
updateCurrDst(22439)
updateCurrDst(22521)
updateCurrDst(22579)
updateCurrDst(22707)
Heartbeat CPU 0 instructions: 14000002 cycles: 4629814 heartbeat IPC: 3.05468 cumulative IPC: 3.02388 (Simulation time: 0 hr 0 min 48 sec) 
updateCurrDst(23141)
updateCurrDst(23154)
updateCurrDst(23225)
updateCurrDst(23291)
updateCurrDst(23358)
updateCurrDst(23385)
updateCurrDst(23399)
updateCurrDst(23432)
updateCurrDst(23748)
updateCurrDst(23817)
updateCurrDst(23937)
updateCurrDst(24062)
updateCurrDst(24193)
updateCurrDst(24491)
updateCurrDst(24534)
updateCurrDst(24791)
updateCurrDst(24839)
updateCurrDst(24840)
updateCurrDst(24843)
updateCurrDst(24959)
updateCurrDst(25547)
Heartbeat CPU 0 instructions: 15000001 cycles: 4957133 heartbeat IPC: 3.05512 cumulative IPC: 3.02594 (Simulation time: 0 hr 0 min 52 sec) 
updateCurrDst(25703)
updateCurrDst(25738)
updateCurrDst(25839)
updateCurrDst(25968)
updateCurrDst(26090)
updateCurrDst(26362)
updateCurrDst(26449)
updateCurrDst(26525)
updateCurrDst(26639)
updateCurrDst(26768)
updateCurrDst(26800)
updateCurrDst(26809)
updateCurrDst(26860)
updateCurrDst(26873)
updateCurrDst(27154)
updateCurrDst(27237)
updateCurrDst(27323)
updateCurrDst(27340)
updateCurrDst(27416)
updateCurrDst(27429)
updateCurrDst(27504)
updateCurrDst(27667)
updateCurrDst(27687)
updateCurrDst(27810)
updateCurrDst(27858)
updateCurrDst(27929)
updateCurrDst(27970)
updateCurrDst(28093)
updateCurrDst(28094)
updateCurrDst(28306)
Heartbeat CPU 0 instructions: 16000000 cycles: 5284899 heartbeat IPC: 3.05095 cumulative IPC: 3.02749 (Simulation time: 0 hr 0 min 56 sec) 
updateCurrDst(28385)
updateCurrDst(28494)
updateCurrDst(28502)
updateCurrDst(28556)
updateCurrDst(28675)
updateCurrDst(28729)
updateCurrDst(28766)
updateCurrDst(28817)
updateCurrDst(28922)
updateCurrDst(28930)
updateCurrDst(29009)
updateCurrDst(29139)
updateCurrDst(29227)
updateCurrDst(29312)
updateCurrDst(29438)
updateCurrDst(29445)
updateCurrDst(29451)
updateCurrDst(29455)
updateCurrDst(29600)
updateCurrDst(29643)
updateCurrDst(29722)
updateCurrDst(29742)
updateCurrDst(29770)
updateCurrDst(29928)
updateCurrDst(30106)
updateCurrDst(30345)
updateCurrDst(30353)
updateCurrDst(30366)
updateCurrDst(30393)
updateCurrDst(30457)
updateCurrDst(30651)
updateCurrDst(30656)
updateCurrDst(30681)
updateCurrDst(30696)
updateCurrDst(30767)
Heartbeat CPU 0 instructions: 17000000 cycles: 5612274 heartbeat IPC: 3.0546 cumulative IPC: 3.02908 (Simulation time: 0 hr 1 min 1 sec) 
updateCurrDst(30911)
updateCurrDst(30922)
updateCurrDst(30945)
updateCurrDst(31068)
updateCurrDst(31094)
updateCurrDst(31150)
updateCurrDst(31193)
updateCurrDst(31236)
updateCurrDst(31384)
updateCurrDst(31389)
updateCurrDst(31432)
updateCurrDst(31639)
updateCurrDst(31691)
updateCurrDst(31883)
updateCurrDst(31887)
updateCurrDst(31912)
updateCurrDst(32207)
updateCurrDst(32258)
updateCurrDst(32484)
updateCurrDst(32501)
updateCurrDst(32512)
updateCurrDst(32718)
updateCurrDst(32740)
updateCurrDst(32870)
updateCurrDst(32916)
updateCurrDst(32964)
updateCurrDst(33006)
updateCurrDst(33221)
updateCurrDst(33287)
updateCurrDst(33333)
Heartbeat CPU 0 instructions: 18000001 cycles: 5939618 heartbeat IPC: 3.05489 cumulative IPC: 3.0305 (Simulation time: 0 hr 1 min 5 sec) 
updateCurrDst(33490)
updateCurrDst(34209)
updateCurrDst(34212)
updateCurrDst(34271)
updateCurrDst(34360)
updateCurrDst(34372)
updateCurrDst(34546)
updateCurrDst(34584)
updateCurrDst(34710)
updateCurrDst(34961)
updateCurrDst(34992)
updateCurrDst(34997)
updateCurrDst(35003)
updateCurrDst(35022)
updateCurrDst(35045)
updateCurrDst(35090)
updateCurrDst(35097)
updateCurrDst(35153)
updateCurrDst(35208)
updateCurrDst(35244)
updateCurrDst(35389)
updateCurrDst(35472)
updateCurrDst(35656)
updateCurrDst(35818)
updateCurrDst(35918)
updateCurrDst(35998)
Heartbeat CPU 0 instructions: 19000001 cycles: 6267237 heartbeat IPC: 3.05233 cumulative IPC: 3.03164 (Simulation time: 0 hr 1 min 9 sec) 
updateCurrDst(36493)
updateCurrDst(36607)
updateCurrDst(36646)
updateCurrDst(36656)
updateCurrDst(36663)
updateCurrDst(36726)
updateCurrDst(36788)
updateCurrDst(36960)
updateCurrDst(37007)
updateCurrDst(37046)
updateCurrDst(37103)
updateCurrDst(37272)
updateCurrDst(37397)
updateCurrDst(37812)
updateCurrDst(37842)
updateCurrDst(37929)
updateCurrDst(38063)
updateCurrDst(38125)
updateCurrDst(38133)
updateCurrDst(38287)
updateCurrDst(38471)
updateCurrDst(38476)
updateCurrDst(38565)
Heartbeat CPU 0 instructions: 20000000 cycles: 6594687 heartbeat IPC: 3.0539 cumulative IPC: 3.03274 (Simulation time: 0 hr 1 min 13 sec) 
updateCurrDst(38698)
updateCurrDst(38811)
updateCurrDst(38823)
updateCurrDst(38913)
updateCurrDst(38951)
updateCurrDst(38959)
updateCurrDst(39008)
updateCurrDst(39100)
updateCurrDst(39141)
updateCurrDst(39181)
updateCurrDst(39297)
updateCurrDst(39312)
updateCurrDst(39442)
updateCurrDst(39699)
updateCurrDst(39742)
updateCurrDst(39855)
updateCurrDst(39890)
updateCurrDst(40260)
updateCurrDst(40467)
updateCurrDst(40685)
updateCurrDst(40751)
updateCurrDst(40890)
updateCurrDst(40934)
updateCurrDst(41077)
updateCurrDst(41158)
updateCurrDst(41214)
Heartbeat CPU 0 instructions: 21000000 cycles: 6922102 heartbeat IPC: 3.05423 cumulative IPC: 3.03376 (Simulation time: 0 hr 1 min 19 sec) 
updateCurrDst(41544)
updateCurrDst(41559)
updateCurrDst(41760)
updateCurrDst(41785)
updateCurrDst(41867)
updateCurrDst(41907)
updateCurrDst(41910)
updateCurrDst(42018)
updateCurrDst(42020)
updateCurrDst(42157)
updateCurrDst(42221)
updateCurrDst(42499)
updateCurrDst(42539)
updateCurrDst(42571)
updateCurrDst(42667)
updateCurrDst(42836)
updateCurrDst(42896)
updateCurrDst(43108)
updateCurrDst(43110)
updateCurrDst(43171)
updateCurrDst(43294)
updateCurrDst(43343)
updateCurrDst(43376)
updateCurrDst(43390)
updateCurrDst(43419)
updateCurrDst(43421)
updateCurrDst(43467)
updateCurrDst(43487)
updateCurrDst(43601)
updateCurrDst(43735)
updateCurrDst(43764)
Heartbeat CPU 0 instructions: 22000000 cycles: 7249733 heartbeat IPC: 3.05221 cumulative IPC: 3.03459 (Simulation time: 0 hr 1 min 23 sec) 
updateCurrDst(43999)
updateCurrDst(44067)
updateCurrDst(44089)
updateCurrDst(44095)
updateCurrDst(44112)
updateCurrDst(44149)
updateCurrDst(44270)
updateCurrDst(44301)
updateCurrDst(44560)
updateCurrDst(44937)
updateCurrDst(45015)
updateCurrDst(45032)
updateCurrDst(45119)
updateCurrDst(45213)
updateCurrDst(45333)
updateCurrDst(45347)
updateCurrDst(45412)
updateCurrDst(45470)
updateCurrDst(45739)
updateCurrDst(45765)
updateCurrDst(45879)
updateCurrDst(46108)
updateCurrDst(46170)
updateCurrDst(46367)
Heartbeat CPU 0 instructions: 23000003 cycles: 7577541 heartbeat IPC: 3.05058 cumulative IPC: 3.03529 (Simulation time: 0 hr 1 min 27 sec) 
updateCurrDst(46490)
updateCurrDst(47008)
updateCurrDst(47064)
updateCurrDst(47077)
updateCurrDst(47181)
updateCurrDst(47197)
updateCurrDst(47221)
updateCurrDst(47371)
updateCurrDst(47373)
updateCurrDst(47447)
updateCurrDst(47527)
updateCurrDst(47692)
updateCurrDst(47754)
updateCurrDst(47809)
updateCurrDst(47896)
updateCurrDst(47908)
updateCurrDst(48159)
updateCurrDst(48514)
updateCurrDst(48547)
updateCurrDst(48583)
updateCurrDst(48612)
updateCurrDst(48648)
updateCurrDst(48975)
updateCurrDst(49081)
Heartbeat CPU 0 instructions: 24000002 cycles: 7905063 heartbeat IPC: 3.05323 cumulative IPC: 3.03603 (Simulation time: 0 hr 1 min 31 sec) 
updateCurrDst(49125)
updateCurrDst(49154)
updateCurrDst(49348)
updateCurrDst(49378)
updateCurrDst(49386)
updateCurrDst(49541)
updateCurrDst(49581)
updateCurrDst(49583)
updateCurrDst(49617)
updateCurrDst(49634)
updateCurrDst(49848)
updateCurrDst(49963)
updateCurrDst(49994)
updateCurrDst(49995)
updateCurrDst(50179)
updateCurrDst(50326)
updateCurrDst(50390)
updateCurrDst(50678)
updateCurrDst(50809)
updateCurrDst(50830)
updateCurrDst(50930)
updateCurrDst(51260)
updateCurrDst(51362)
updateCurrDst(51478)
updateCurrDst(51525)
Heartbeat CPU 0 instructions: 25000002 cycles: 8232479 heartbeat IPC: 3.05422 cumulative IPC: 3.03675 (Simulation time: 0 hr 1 min 35 sec) 
updateCurrDst(51696)
updateCurrDst(51707)
updateCurrDst(51958)
updateCurrDst(52088)
updateCurrDst(52109)
updateCurrDst(52149)
updateCurrDst(52432)
updateCurrDst(52476)
updateCurrDst(52806)
updateCurrDst(52876)
updateCurrDst(52890)
updateCurrDst(52924)
updateCurrDst(53028)
updateCurrDst(53385)
updateCurrDst(53415)
updateCurrDst(53492)
updateCurrDst(53499)
updateCurrDst(53516)
updateCurrDst(53598)
updateCurrDst(53648)
updateCurrDst(53718)
updateCurrDst(53826)
updateCurrDst(53872)
updateCurrDst(53947)
updateCurrDst(53948)
updateCurrDst(54027)
updateCurrDst(54035)
updateCurrDst(54163)
Heartbeat CPU 0 instructions: 26000001 cycles: 8560081 heartbeat IPC: 3.05248 cumulative IPC: 3.03735 (Simulation time: 0 hr 1 min 40 sec) 
updateCurrDst(54321)
updateCurrDst(54358)
updateCurrDst(54411)
updateCurrDst(54570)
updateCurrDst(54571)
updateCurrDst(54791)
updateCurrDst(54849)
updateCurrDst(54884)
updateCurrDst(54950)
updateCurrDst(54991)
updateCurrDst(54994)
updateCurrDst(54997)
updateCurrDst(55045)
updateCurrDst(55070)
updateCurrDst(55098)
updateCurrDst(55143)
updateCurrDst(55146)
updateCurrDst(55179)
updateCurrDst(55349)
updateCurrDst(55402)
updateCurrDst(55456)
updateCurrDst(55508)
updateCurrDst(55906)
updateCurrDst(56066)
updateCurrDst(56085)
updateCurrDst(56153)
updateCurrDst(56222)
updateCurrDst(56286)
updateCurrDst(56416)
updateCurrDst(56621)
updateCurrDst(56669)
updateCurrDst(56780)
updateCurrDst(56788)
Heartbeat CPU 0 instructions: 27000002 cycles: 8887642 heartbeat IPC: 3.05287 cumulative IPC: 3.03793 (Simulation time: 0 hr 1 min 44 sec) 
updateCurrDst(56869)
updateCurrDst(56928)
updateCurrDst(56953)
updateCurrDst(57024)
updateCurrDst(57057)
updateCurrDst(57216)
updateCurrDst(57331)
updateCurrDst(57351)
updateCurrDst(57388)
updateCurrDst(57389)
updateCurrDst(57516)
updateCurrDst(57576)
updateCurrDst(57630)
updateCurrDst(57818)
updateCurrDst(57836)
updateCurrDst(57909)
updateCurrDst(57923)
updateCurrDst(57932)
updateCurrDst(57997)
updateCurrDst(58131)
updateCurrDst(58223)
updateCurrDst(58224)
updateCurrDst(58315)
updateCurrDst(58400)
updateCurrDst(58440)
updateCurrDst(58481)
updateCurrDst(58535)
updateCurrDst(58750)
updateCurrDst(58759)
updateCurrDst(58983)
updateCurrDst(58998)
updateCurrDst(59251)
updateCurrDst(59284)
updateCurrDst(59361)
updateCurrDst(59393)
Heartbeat CPU 0 instructions: 28000002 cycles: 9215077 heartbeat IPC: 3.05404 cumulative IPC: 3.0385 (Simulation time: 0 hr 1 min 48 sec) 
updateCurrDst(59454)
updateCurrDst(59505)
updateCurrDst(59552)
updateCurrDst(59656)
updateCurrDst(59683)
updateCurrDst(59760)
updateCurrDst(59931)
updateCurrDst(59939)
updateCurrDst(59982)
updateCurrDst(60246)
updateCurrDst(60308)
updateCurrDst(60344)
updateCurrDst(60411)
updateCurrDst(60429)
updateCurrDst(60495)
updateCurrDst(60577)
updateCurrDst(60789)
updateCurrDst(60866)
updateCurrDst(61025)
updateCurrDst(61099)
updateCurrDst(61270)
updateCurrDst(61368)
updateCurrDst(61412)
updateCurrDst(61513)
updateCurrDst(61589)
updateCurrDst(61669)
updateCurrDst(61673)
updateCurrDst(61858)
updateCurrDst(61911)
Heartbeat CPU 0 instructions: 29000000 cycles: 9542345 heartbeat IPC: 3.05559 cumulative IPC: 3.03909 (Simulation time: 0 hr 1 min 52 sec) 
updateCurrDst(62017)
updateCurrDst(62116)
updateCurrDst(62136)
updateCurrDst(62230)
updateCurrDst(62374)
updateCurrDst(62454)
updateCurrDst(62477)
updateCurrDst(62553)
updateCurrDst(62621)
updateCurrDst(62826)
updateCurrDst(62964)
updateCurrDst(63098)
updateCurrDst(63164)
updateCurrDst(63180)
updateCurrDst(63220)
updateCurrDst(63316)
updateCurrDst(63642)
updateCurrDst(63780)
updateCurrDst(63833)
updateCurrDst(63896)
updateCurrDst(63928)
updateCurrDst(63986)
updateCurrDst(64172)
updateCurrDst(64189)
updateCurrDst(64249)
updateCurrDst(64352)
updateCurrDst(64377)
updateCurrDst(64559)
Heartbeat CPU 0 instructions: 30000001 cycles: 9870034 heartbeat IPC: 3.05168 cumulative IPC: 3.0395 (Simulation time: 0 hr 1 min 56 sec) 
updateCurrDst(64627)
updateCurrDst(64629)
updateCurrDst(64713)
updateCurrDst(64820)
updateCurrDst(64830)
updateCurrDst(64845)
updateCurrDst(64907)
updateCurrDst(64968)
updateCurrDst(64982)
updateCurrDst(65010)
updateCurrDst(65012)
updateCurrDst(65140)
updateCurrDst(65191)
updateCurrDst(65197)
updateCurrDst(65409)
updateCurrDst(65548)
updateCurrDst(65554)
updateCurrDst(65567)
updateCurrDst(65975)
updateCurrDst(65990)
updateCurrDst(66058)
updateCurrDst(66095)
updateCurrDst(66171)
updateCurrDst(66209)
updateCurrDst(66390)
updateCurrDst(66625)
updateCurrDst(66691)
updateCurrDst(66738)
updateCurrDst(66858)
updateCurrDst(66897)
Heartbeat CPU 0 instructions: 31000003 cycles: 10197836 heartbeat IPC: 3.05063 cumulative IPC: 3.03986 (Simulation time: 0 hr 2 min 0 sec) 
updateCurrDst(67390)
updateCurrDst(67468)
updateCurrDst(67661)
updateCurrDst(67706)
updateCurrDst(67837)
updateCurrDst(68085)
updateCurrDst(68089)
updateCurrDst(68138)
updateCurrDst(68187)
updateCurrDst(68317)
updateCurrDst(68538)
updateCurrDst(68556)
updateCurrDst(68574)
updateCurrDst(68953)
updateCurrDst(69036)
updateCurrDst(69215)
updateCurrDst(69230)
updateCurrDst(69479)
updateCurrDst(69583)
updateCurrDst(69751)
Heartbeat CPU 0 instructions: 32000002 cycles: 10525089 heartbeat IPC: 3.05574 cumulative IPC: 3.04035 (Simulation time: 0 hr 2 min 4 sec) 
updateCurrDst(69904)
updateCurrDst(69935)
updateCurrDst(70008)
updateCurrDst(70054)
updateCurrDst(70057)
updateCurrDst(70064)
updateCurrDst(70318)
updateCurrDst(70508)
updateCurrDst(70667)
updateCurrDst(70726)
updateCurrDst(70735)
updateCurrDst(70782)
updateCurrDst(70828)
updateCurrDst(70929)
updateCurrDst(71061)
updateCurrDst(71092)
updateCurrDst(71111)
updateCurrDst(71234)
updateCurrDst(71548)
updateCurrDst(71668)
updateCurrDst(71672)
updateCurrDst(71690)
updateCurrDst(71731)
updateCurrDst(71813)
updateCurrDst(72341)
Heartbeat CPU 0 instructions: 33000000 cycles: 10852308 heartbeat IPC: 3.05605 cumulative IPC: 3.04083 (Simulation time: 0 hr 2 min 8 sec) 
updateCurrDst(72599)
updateCurrDst(72795)
updateCurrDst(72815)
updateCurrDst(73091)
updateCurrDst(73278)
updateCurrDst(73315)
updateCurrDst(73342)
updateCurrDst(73363)
updateCurrDst(73541)
updateCurrDst(73743)
updateCurrDst(73768)
updateCurrDst(73793)
updateCurrDst(73796)
updateCurrDst(73842)
updateCurrDst(73857)
updateCurrDst(74228)
updateCurrDst(74480)
updateCurrDst(74559)
updateCurrDst(74974)
Heartbeat CPU 0 instructions: 34000002 cycles: 11179777 heartbeat IPC: 3.05373 cumulative IPC: 3.04121 (Simulation time: 0 hr 2 min 13 sec) 
updateCurrDst(75032)
updateCurrDst(75211)
updateCurrDst(75338)
updateCurrDst(75374)
updateCurrDst(75527)
updateCurrDst(75748)
updateCurrDst(75811)
updateCurrDst(75829)
updateCurrDst(75842)
updateCurrDst(75971)
updateCurrDst(76040)
updateCurrDst(76187)
updateCurrDst(76382)
updateCurrDst(76489)
updateCurrDst(76494)
updateCurrDst(76600)
updateCurrDst(76646)
updateCurrDst(76793)
updateCurrDst(76851)
updateCurrDst(77019)
updateCurrDst(77146)
updateCurrDst(77191)
updateCurrDst(77390)
updateCurrDst(77480)
updateCurrDst(77523)
updateCurrDst(77569)
Heartbeat CPU 0 instructions: 35000000 cycles: 11507252 heartbeat IPC: 3.05366 cumulative IPC: 3.04156 (Simulation time: 0 hr 2 min 17 sec) 
updateCurrDst(78026)
updateCurrDst(78074)
updateCurrDst(78419)
updateCurrDst(78518)
updateCurrDst(78575)
updateCurrDst(78732)
updateCurrDst(78790)
updateCurrDst(78810)
updateCurrDst(78850)
updateCurrDst(78861)
updateCurrDst(78960)
updateCurrDst(79015)
updateCurrDst(79106)
updateCurrDst(79293)
updateCurrDst(79412)
updateCurrDst(79627)
updateCurrDst(79683)
updateCurrDst(79729)
Heartbeat CPU 0 instructions: 36000000 cycles: 11834778 heartbeat IPC: 3.05319 cumulative IPC: 3.04188 (Simulation time: 0 hr 2 min 22 sec) 
updateCurrDst(80534)
updateCurrDst(80653)
updateCurrDst(80684)
updateCurrDst(80837)
updateCurrDst(80909)
updateCurrDst(80917)
updateCurrDst(80980)
updateCurrDst(81178)
updateCurrDst(81192)
updateCurrDst(81277)
updateCurrDst(81324)
updateCurrDst(81769)
updateCurrDst(81792)
updateCurrDst(81814)
updateCurrDst(81863)
updateCurrDst(81870)
updateCurrDst(82006)
updateCurrDst(82074)
updateCurrDst(82105)
updateCurrDst(82157)
updateCurrDst(82218)
updateCurrDst(82478)
updateCurrDst(82531)
updateCurrDst(82727)
Heartbeat CPU 0 instructions: 37000001 cycles: 12162280 heartbeat IPC: 3.05342 cumulative IPC: 3.04219 (Simulation time: 0 hr 2 min 27 sec) 
updateCurrDst(82905)
updateCurrDst(82927)
updateCurrDst(83049)
updateCurrDst(83160)
updateCurrDst(83166)
updateCurrDst(83197)
updateCurrDst(83218)
updateCurrDst(83311)
updateCurrDst(83329)
updateCurrDst(83363)
updateCurrDst(83564)
updateCurrDst(83706)
updateCurrDst(84126)
updateCurrDst(84310)
updateCurrDst(84524)
updateCurrDst(84779)
updateCurrDst(85055)
updateCurrDst(85154)
updateCurrDst(85188)
updateCurrDst(85263)
updateCurrDst(85298)
Heartbeat CPU 0 instructions: 38000002 cycles: 12489850 heartbeat IPC: 3.05279 cumulative IPC: 3.04247 (Simulation time: 0 hr 2 min 31 sec) 
updateCurrDst(85491)
updateCurrDst(85501)
updateCurrDst(85628)
updateCurrDst(85715)
updateCurrDst(85829)
updateCurrDst(85916)
updateCurrDst(85931)
updateCurrDst(85945)
updateCurrDst(86124)
updateCurrDst(86161)
updateCurrDst(86196)
updateCurrDst(86247)
updateCurrDst(86469)
updateCurrDst(86508)
updateCurrDst(86512)
updateCurrDst(87056)
updateCurrDst(87144)
updateCurrDst(87182)
updateCurrDst(87324)
updateCurrDst(87360)
updateCurrDst(87424)
updateCurrDst(87486)
updateCurrDst(87662)
updateCurrDst(87853)
updateCurrDst(87871)
Heartbeat CPU 0 instructions: 39000000 cycles: 12817265 heartbeat IPC: 3.05422 cumulative IPC: 3.04277 (Simulation time: 0 hr 2 min 35 sec) 
updateCurrDst(88084)
updateCurrDst(88096)
updateCurrDst(88232)
updateCurrDst(88295)
updateCurrDst(88386)
updateCurrDst(88423)
updateCurrDst(88441)
updateCurrDst(88487)
updateCurrDst(88655)
updateCurrDst(88892)
updateCurrDst(88916)
updateCurrDst(89123)
updateCurrDst(89214)
updateCurrDst(89298)
updateCurrDst(89434)
updateCurrDst(89581)
updateCurrDst(89623)
updateCurrDst(89693)
updateCurrDst(89723)
updateCurrDst(89850)
updateCurrDst(90379)
updateCurrDst(90384)
updateCurrDst(90492)
updateCurrDst(90494)
Heartbeat CPU 0 instructions: 40000003 cycles: 13144694 heartbeat IPC: 3.05411 cumulative IPC: 3.04305 (Simulation time: 0 hr 2 min 39 sec) 
updateCurrDst(90632)
updateCurrDst(90709)
updateCurrDst(90779)
updateCurrDst(90833)
updateCurrDst(90923)
updateCurrDst(90966)
updateCurrDst(91190)
updateCurrDst(91315)
updateCurrDst(91669)
updateCurrDst(91776)
updateCurrDst(91869)
updateCurrDst(91916)
updateCurrDst(92021)
updateCurrDst(92143)
updateCurrDst(92298)
updateCurrDst(92307)
updateCurrDst(92359)
updateCurrDst(92408)
updateCurrDst(92469)
updateCurrDst(92588)
updateCurrDst(92598)
updateCurrDst(92599)
updateCurrDst(92751)
updateCurrDst(92782)
updateCurrDst(92784)
updateCurrDst(92895)
updateCurrDst(92928)
updateCurrDst(93145)
updateCurrDst(93154)
updateCurrDst(93159)
Heartbeat CPU 0 instructions: 41000002 cycles: 13472134 heartbeat IPC: 3.05399 cumulative IPC: 3.04332 (Simulation time: 0 hr 2 min 44 sec) 
updateCurrDst(93214)
updateCurrDst(93215)
updateCurrDst(93352)
updateCurrDst(93419)
updateCurrDst(93421)
updateCurrDst(93454)
updateCurrDst(93556)
updateCurrDst(93631)
updateCurrDst(93702)
updateCurrDst(93887)
updateCurrDst(94056)
updateCurrDst(94074)
updateCurrDst(94230)
updateCurrDst(94448)
updateCurrDst(94522)
updateCurrDst(94609)
updateCurrDst(95449)
updateCurrDst(95649)
updateCurrDst(95651)
updateCurrDst(95702)
Heartbeat CPU 0 instructions: 42000001 cycles: 13799351 heartbeat IPC: 3.05607 cumulative IPC: 3.04362 (Simulation time: 0 hr 2 min 48 sec) 
updateCurrDst(95847)
updateCurrDst(95971)
updateCurrDst(96148)
updateCurrDst(96485)
updateCurrDst(96516)
updateCurrDst(96689)
updateCurrDst(96771)
updateCurrDst(96840)
updateCurrDst(96956)
updateCurrDst(97039)
updateCurrDst(97161)
updateCurrDst(97222)
updateCurrDst(97233)
updateCurrDst(97317)
updateCurrDst(97330)
updateCurrDst(97498)
updateCurrDst(97746)
updateCurrDst(97827)
updateCurrDst(97884)
updateCurrDst(97924)
updateCurrDst(97963)
updateCurrDst(97984)
updateCurrDst(98067)
updateCurrDst(98116)
updateCurrDst(98324)
Heartbeat CPU 0 instructions: 43000001 cycles: 14127108 heartbeat IPC: 3.05104 cumulative IPC: 3.04379 (Simulation time: 0 hr 2 min 53 sec) 
updateCurrDst(98426)
updateCurrDst(98485)
updateCurrDst(98578)
updateCurrDst(98663)
updateCurrDst(98725)
updateCurrDst(98726)
updateCurrDst(98909)
updateCurrDst(99046)
updateCurrDst(99144)
updateCurrDst(99194)
updateCurrDst(99571)
updateCurrDst(99736)
updateCurrDst(99749)
updateCurrDst(99821)
updateCurrDst(99827)
updateCurrDst(99874)
updateCurrDst(100011)
updateCurrDst(100165)
updateCurrDst(100316)
updateCurrDst(100340)
updateCurrDst(100462)
updateCurrDst(100506)
updateCurrDst(100560)
updateCurrDst(100613)
updateCurrDst(100653)
updateCurrDst(100681)
updateCurrDst(100704)
updateCurrDst(100723)
updateCurrDst(100873)
updateCurrDst(100931)
Heartbeat CPU 0 instructions: 44000000 cycles: 14454748 heartbeat IPC: 3.05213 cumulative IPC: 3.04398 (Simulation time: 0 hr 2 min 58 sec) 
updateCurrDst(101136)
updateCurrDst(101362)
updateCurrDst(101473)
updateCurrDst(101500)
updateCurrDst(101509)
updateCurrDst(101560)
updateCurrDst(101673)
updateCurrDst(101757)
updateCurrDst(101890)
updateCurrDst(101930)
updateCurrDst(102293)
updateCurrDst(102443)
updateCurrDst(102633)
updateCurrDst(102655)
updateCurrDst(102793)
updateCurrDst(102811)
updateCurrDst(102855)
updateCurrDst(102867)
updateCurrDst(103158)
updateCurrDst(103438)
updateCurrDst(103521)
updateCurrDst(103526)
Heartbeat CPU 0 instructions: 45000002 cycles: 14782521 heartbeat IPC: 3.0509 cumulative IPC: 3.04414 (Simulation time: 0 hr 3 min 3 sec) 
updateCurrDst(103624)
updateCurrDst(103632)
updateCurrDst(103831)
updateCurrDst(103886)
updateCurrDst(103943)
updateCurrDst(104289)
updateCurrDst(104318)
updateCurrDst(104332)
updateCurrDst(104415)
updateCurrDst(104454)
updateCurrDst(104527)
updateCurrDst(104709)
updateCurrDst(104748)
updateCurrDst(104760)
updateCurrDst(104840)
updateCurrDst(104853)
updateCurrDst(104972)
updateCurrDst(104974)
updateCurrDst(105104)
updateCurrDst(105128)
updateCurrDst(105260)
updateCurrDst(105481)
updateCurrDst(105549)
updateCurrDst(105571)
updateCurrDst(105589)
updateCurrDst(105632)
updateCurrDst(105748)
updateCurrDst(105987)
updateCurrDst(106030)
updateCurrDst(106038)
updateCurrDst(106171)
Heartbeat CPU 0 instructions: 46000003 cycles: 15110170 heartbeat IPC: 3.05205 cumulative IPC: 3.04431 (Simulation time: 0 hr 3 min 8 sec) 
updateCurrDst(106208)
updateCurrDst(106341)
updateCurrDst(106896)
updateCurrDst(106989)
updateCurrDst(107000)
updateCurrDst(107141)
updateCurrDst(107265)
updateCurrDst(107414)
updateCurrDst(107463)
updateCurrDst(107564)
updateCurrDst(107703)
updateCurrDst(107748)
updateCurrDst(107762)
updateCurrDst(108030)
updateCurrDst(108188)
updateCurrDst(108304)
updateCurrDst(108736)
Heartbeat CPU 0 instructions: 47000001 cycles: 15437381 heartbeat IPC: 3.05613 cumulative IPC: 3.04456 (Simulation time: 0 hr 3 min 12 sec) 
updateCurrDst(108931)
updateCurrDst(108972)
updateCurrDst(109112)
updateCurrDst(109138)
updateCurrDst(109240)
updateCurrDst(109321)
updateCurrDst(109334)
updateCurrDst(109369)
updateCurrDst(109737)
updateCurrDst(109833)
updateCurrDst(109876)
updateCurrDst(109891)
updateCurrDst(109897)
updateCurrDst(110031)
updateCurrDst(110209)
updateCurrDst(110249)
updateCurrDst(110499)
updateCurrDst(110948)
updateCurrDst(111142)
updateCurrDst(111219)
updateCurrDst(111225)
updateCurrDst(111246)
updateCurrDst(111247)
updateCurrDst(111340)
updateCurrDst(111351)
updateCurrDst(111393)
Heartbeat CPU 0 instructions: 48000000 cycles: 15764925 heartbeat IPC: 3.05302 cumulative IPC: 3.04473 (Simulation time: 0 hr 3 min 17 sec) 
updateCurrDst(111460)
updateCurrDst(111549)
updateCurrDst(111748)
updateCurrDst(111811)
updateCurrDst(111973)
updateCurrDst(112166)
updateCurrDst(112180)
updateCurrDst(112189)
updateCurrDst(112476)
updateCurrDst(112478)
updateCurrDst(112510)
updateCurrDst(112733)
updateCurrDst(112784)
updateCurrDst(112786)
updateCurrDst(113151)
updateCurrDst(113190)
updateCurrDst(113201)
updateCurrDst(113244)
updateCurrDst(113306)
updateCurrDst(113310)
updateCurrDst(113334)
updateCurrDst(113342)
updateCurrDst(113385)
updateCurrDst(113841)
updateCurrDst(113896)
updateCurrDst(113916)
updateCurrDst(113917)
updateCurrDst(113989)
Heartbeat CPU 0 instructions: 49000001 cycles: 16092604 heartbeat IPC: 3.05177 cumulative IPC: 3.04488 (Simulation time: 0 hr 3 min 21 sec) 
updateCurrDst(114025)
updateCurrDst(114144)
updateCurrDst(114460)
updateCurrDst(114472)
updateCurrDst(114666)
updateCurrDst(114692)
updateCurrDst(114740)
updateCurrDst(114837)
updateCurrDst(114868)
updateCurrDst(114916)
updateCurrDst(114926)
updateCurrDst(114949)
updateCurrDst(115032)
updateCurrDst(115145)
updateCurrDst(115291)
updateCurrDst(115318)
updateCurrDst(115534)
updateCurrDst(115662)
updateCurrDst(115806)
updateCurrDst(115846)
updateCurrDst(116205)
updateCurrDst(116214)
updateCurrDst(116410)
updateCurrDst(116494)
Heartbeat CPU 0 instructions: 50000003 cycles: 16420327 heartbeat IPC: 3.05136 cumulative IPC: 3.04501 (Simulation time: 0 hr 3 min 25 sec) 
updateCurrDst(116714)
updateCurrDst(116976)
updateCurrDst(116979)
updateCurrDst(117069)
updateCurrDst(117238)
updateCurrDst(117261)
updateCurrDst(117281)
updateCurrDst(117638)
updateCurrDst(117721)
updateCurrDst(117794)
updateCurrDst(117905)
updateCurrDst(117951)
updateCurrDst(118051)
updateCurrDst(118079)
updateCurrDst(118238)
updateCurrDst(118273)
updateCurrDst(118405)
updateCurrDst(118497)
updateCurrDst(118539)
updateCurrDst(118545)
updateCurrDst(118548)
updateCurrDst(118603)
updateCurrDst(118704)
updateCurrDst(118934)
updateCurrDst(119052)
updateCurrDst(119077)
updateCurrDst(119206)
Heartbeat CPU 0 instructions: 51000002 cycles: 16748030 heartbeat IPC: 3.05154 cumulative IPC: 3.04513 (Simulation time: 0 hr 3 min 30 sec) 
updateCurrDst(119426)
updateCurrDst(119643)
updateCurrDst(119696)
updateCurrDst(119763)
updateCurrDst(119775)
updateCurrDst(119787)
updateCurrDst(119842)
updateCurrDst(120172)
updateCurrDst(120198)
updateCurrDst(120297)
updateCurrDst(120320)
updateCurrDst(120558)
updateCurrDst(120775)
updateCurrDst(120931)
updateCurrDst(121332)
updateCurrDst(121481)
updateCurrDst(121486)
updateCurrDst(121571)
updateCurrDst(121763)
updateCurrDst(121775)
Heartbeat CPU 0 instructions: 52000002 cycles: 17075415 heartbeat IPC: 3.05451 cumulative IPC: 3.04531 (Simulation time: 0 hr 3 min 34 sec) 
updateCurrDst(121983)
updateCurrDst(122025)
updateCurrDst(122072)
updateCurrDst(122094)
updateCurrDst(122223)
updateCurrDst(122336)
updateCurrDst(122436)
updateCurrDst(122462)
updateCurrDst(122607)
updateCurrDst(122752)
updateCurrDst(123079)
updateCurrDst(123159)
updateCurrDst(123161)
updateCurrDst(123169)
updateCurrDst(123229)
updateCurrDst(123304)
updateCurrDst(123309)
updateCurrDst(123429)
updateCurrDst(123464)
updateCurrDst(123573)
updateCurrDst(123720)
updateCurrDst(124045)
updateCurrDst(124125)
updateCurrDst(124192)
updateCurrDst(124347)
updateCurrDst(124372)
updateCurrDst(124390)
Heartbeat CPU 0 instructions: 53000002 cycles: 17403221 heartbeat IPC: 3.05058 cumulative IPC: 3.04541 (Simulation time: 0 hr 3 min 38 sec) 
updateCurrDst(124418)
updateCurrDst(124574)
updateCurrDst(124916)
updateCurrDst(125059)
updateCurrDst(125225)
updateCurrDst(125237)
updateCurrDst(125321)
updateCurrDst(125797)
updateCurrDst(125870)
updateCurrDst(125901)
updateCurrDst(125920)
updateCurrDst(126118)
updateCurrDst(126137)
updateCurrDst(126234)
updateCurrDst(126335)
updateCurrDst(126364)
updateCurrDst(126462)
updateCurrDst(126527)
updateCurrDst(126615)
updateCurrDst(126661)
updateCurrDst(126734)
Heartbeat CPU 0 instructions: 54000001 cycles: 17730772 heartbeat IPC: 3.05296 cumulative IPC: 3.04555 (Simulation time: 0 hr 3 min 43 sec) 
updateCurrDst(127198)
updateCurrDst(127297)
updateCurrDst(127405)
updateCurrDst(127470)
updateCurrDst(127575)
updateCurrDst(127611)
updateCurrDst(127718)
updateCurrDst(127777)
updateCurrDst(127805)
updateCurrDst(127963)
updateCurrDst(128067)
updateCurrDst(128307)
updateCurrDst(128325)
updateCurrDst(128341)
updateCurrDst(128384)
updateCurrDst(128659)
updateCurrDst(128705)
updateCurrDst(128715)
updateCurrDst(128801)
updateCurrDst(128890)
updateCurrDst(129448)
updateCurrDst(129453)
updateCurrDst(129594)
Heartbeat CPU 0 instructions: 55000000 cycles: 18058163 heartbeat IPC: 3.05445 cumulative IPC: 3.04571 (Simulation time: 0 hr 3 min 47 sec) 

Warmup complete CPU 0 instructions: 55000004 cycles: 18058164 (Simulation time: 0 hr 3 min 47 sec) 

updateCurrDst(129783)
updateCurrDst(129824)
updateCurrDst(129852)
updateCurrDst(129944)
updateCurrDst(130005)
updateCurrDst(130049)
updateCurrDst(130230)
updateCurrDst(130316)
updateCurrDst(130590)
updateCurrDst(130822)
updateCurrDst(130900)
updateCurrDst(130908)
updateCurrDst(131023)
updateCurrDst(131093)
updateCurrDst(131094)
updateCurrDst(131241)
updateCurrDst(131341)
updateCurrDst(131381)
updateCurrDst(131543)
updateCurrDst(131552)
updateCurrDst(131987)
updateCurrDst(132133)
Heartbeat CPU 0 instructions: 56000000 cycles: 21042984 heartbeat IPC: 0.335028 cumulative IPC: 0.335027 (Simulation time: 0 hr 3 min 52 sec) 
updateCurrDst(132300)
updateCurrDst(132322)
updateCurrDst(132397)
updateCurrDst(132409)
updateCurrDst(132457)
updateCurrDst(132638)
updateCurrDst(133133)
updateCurrDst(133504)
updateCurrDst(133612)
updateCurrDst(133665)
updateCurrDst(133953)
updateCurrDst(134115)
updateCurrDst(134118)
updateCurrDst(134202)
updateCurrDst(134365)
updateCurrDst(134417)
updateCurrDst(134427)
updateCurrDst(134431)
updateCurrDst(134446)
updateCurrDst(134468)
updateCurrDst(134478)
updateCurrDst(134533)
updateCurrDst(134542)
updateCurrDst(134673)
Heartbeat CPU 0 instructions: 57000002 cycles: 24015216 heartbeat IPC: 0.336448 cumulative IPC: 0.335736 (Simulation time: 0 hr 3 min 57 sec) 
updateCurrDst(134875)
updateCurrDst(134904)
updateCurrDst(134910)
updateCurrDst(134926)
updateCurrDst(134968)
updateCurrDst(135153)
updateCurrDst(135239)
updateCurrDst(135241)
updateCurrDst(135289)
updateCurrDst(135342)
updateCurrDst(135557)
updateCurrDst(135590)
updateCurrDst(135633)
updateCurrDst(135728)
updateCurrDst(135881)
updateCurrDst(135883)
updateCurrDst(136150)
updateCurrDst(136151)
updateCurrDst(136333)
updateCurrDst(136340)
updateCurrDst(136430)
updateCurrDst(136456)
updateCurrDst(136493)
updateCurrDst(136559)
updateCurrDst(136806)
updateCurrDst(136971)
updateCurrDst(137007)
updateCurrDst(137016)
updateCurrDst(137020)
updateCurrDst(137042)
updateCurrDst(137173)
updateCurrDst(137241)
updateCurrDst(137242)
updateCurrDst(137348)
updateCurrDst(137425)
Heartbeat CPU 0 instructions: 58000003 cycles: 26992812 heartbeat IPC: 0.335842 cumulative IPC: 0.335771 (Simulation time: 0 hr 4 min 1 sec) 
updateCurrDst(137501)
updateCurrDst(137624)
updateCurrDst(137693)
updateCurrDst(137698)
updateCurrDst(137709)
updateCurrDst(137821)
updateCurrDst(138074)
updateCurrDst(138245)
updateCurrDst(138292)
updateCurrDst(138367)
updateCurrDst(138560)
updateCurrDst(138679)
updateCurrDst(138696)
updateCurrDst(138749)
updateCurrDst(138774)
updateCurrDst(138872)
updateCurrDst(138970)
updateCurrDst(139173)
updateCurrDst(139545)
updateCurrDst(139609)
updateCurrDst(139735)
updateCurrDst(139777)
updateCurrDst(139859)
updateCurrDst(139862)
Heartbeat CPU 0 instructions: 59000002 cycles: 29994029 heartbeat IPC: 0.333198 cumulative IPC: 0.335124 (Simulation time: 0 hr 4 min 6 sec) 
updateCurrDst(140018)
updateCurrDst(140142)
updateCurrDst(140207)
updateCurrDst(140270)
updateCurrDst(140287)
updateCurrDst(140450)
updateCurrDst(140454)
updateCurrDst(140460)
updateCurrDst(140523)
updateCurrDst(140613)
updateCurrDst(140617)
updateCurrDst(140704)
updateCurrDst(140928)
updateCurrDst(140981)
updateCurrDst(141019)
updateCurrDst(141163)
updateCurrDst(141166)
updateCurrDst(141318)
updateCurrDst(141394)
updateCurrDst(141414)
updateCurrDst(141427)
updateCurrDst(141432)
updateCurrDst(141451)
updateCurrDst(141518)
updateCurrDst(141633)
updateCurrDst(141641)
updateCurrDst(141684)
updateCurrDst(141835)
updateCurrDst(141947)
updateCurrDst(141975)
updateCurrDst(142072)
updateCurrDst(142088)
updateCurrDst(142328)
updateCurrDst(142435)
updateCurrDst(142448)
updateCurrDst(142545)
updateCurrDst(142586)
Heartbeat CPU 0 instructions: 60000000 cycles: 33003760 heartbeat IPC: 0.332255 cumulative IPC: 0.334546 (Simulation time: 0 hr 4 min 11 sec) 
updateCurrDst(142755)
updateCurrDst(142778)
updateCurrDst(142845)
updateCurrDst(142920)
updateCurrDst(143001)
updateCurrDst(143006)
updateCurrDst(143108)
updateCurrDst(143128)
updateCurrDst(143322)
updateCurrDst(143357)
updateCurrDst(143521)
updateCurrDst(143522)
updateCurrDst(143665)
updateCurrDst(143713)
updateCurrDst(143737)
updateCurrDst(143963)
updateCurrDst(144100)
updateCurrDst(144199)
updateCurrDst(144243)
updateCurrDst(144411)
updateCurrDst(144660)
updateCurrDst(144779)
updateCurrDst(145023)
updateCurrDst(145167)
Heartbeat CPU 0 instructions: 61000000 cycles: 36017070 heartbeat IPC: 0.331861 cumulative IPC: 0.334096 (Simulation time: 0 hr 4 min 16 sec) 
updateCurrDst(145226)
updateCurrDst(145556)
updateCurrDst(145621)
updateCurrDst(145631)
updateCurrDst(145796)
updateCurrDst(145883)
updateCurrDst(145885)
updateCurrDst(146051)
updateCurrDst(146062)
updateCurrDst(146373)
updateCurrDst(146387)
updateCurrDst(146471)
updateCurrDst(146797)
updateCurrDst(146905)
updateCurrDst(146982)
updateCurrDst(147134)
updateCurrDst(147295)
updateCurrDst(147410)
updateCurrDst(147717)
updateCurrDst(147726)
Heartbeat CPU 0 instructions: 62000000 cycles: 39035204 heartbeat IPC: 0.331331 cumulative IPC: 0.333698 (Simulation time: 0 hr 4 min 22 sec) 
updateCurrDst(147802)
updateCurrDst(147980)
updateCurrDst(148283)
updateCurrDst(148375)
updateCurrDst(148485)
updateCurrDst(148758)
updateCurrDst(148781)
updateCurrDst(148902)
updateCurrDst(149019)
updateCurrDst(149171)
updateCurrDst(149242)
updateCurrDst(149525)
updateCurrDst(149541)
updateCurrDst(149598)
updateCurrDst(149600)
updateCurrDst(149680)
updateCurrDst(149998)
updateCurrDst(150049)
updateCurrDst(150228)
updateCurrDst(150315)
updateCurrDst(150339)
Heartbeat CPU 0 instructions: 63000001 cycles: 42018956 heartbeat IPC: 0.335149 cumulative IPC: 0.333879 (Simulation time: 0 hr 4 min 27 sec) 
updateCurrDst(150425)
updateCurrDst(150605)
updateCurrDst(150691)
updateCurrDst(151224)
updateCurrDst(151346)
updateCurrDst(151377)
updateCurrDst(151430)
updateCurrDst(151528)
updateCurrDst(151546)
updateCurrDst(151654)
updateCurrDst(151752)
updateCurrDst(151798)
updateCurrDst(151882)
updateCurrDst(151905)
updateCurrDst(151954)
updateCurrDst(152018)
updateCurrDst(152365)
updateCurrDst(152479)
updateCurrDst(152599)
updateCurrDst(152870)
Heartbeat CPU 0 instructions: 64000001 cycles: 45018497 heartbeat IPC: 0.333384 cumulative IPC: 0.333824 (Simulation time: 0 hr 4 min 32 sec) 
updateCurrDst(153013)
updateCurrDst(153032)
updateCurrDst(153051)
updateCurrDst(153186)
updateCurrDst(153234)
updateCurrDst(153284)
updateCurrDst(153370)
updateCurrDst(153389)
updateCurrDst(153405)
updateCurrDst(153434)
updateCurrDst(153443)
updateCurrDst(153478)
updateCurrDst(153524)
updateCurrDst(153555)
updateCurrDst(153645)
updateCurrDst(153728)
updateCurrDst(153903)
updateCurrDst(153964)
updateCurrDst(154041)
updateCurrDst(154207)
updateCurrDst(154246)
updateCurrDst(154257)
updateCurrDst(154385)
updateCurrDst(154479)
updateCurrDst(155088)
updateCurrDst(155181)
updateCurrDst(155206)
updateCurrDst(155240)
updateCurrDst(155427)
Heartbeat CPU 0 instructions: 65000000 cycles: 48049190 heartbeat IPC: 0.329957 cumulative IPC: 0.333433 (Simulation time: 0 hr 4 min 37 sec) 
updateCurrDst(155629)
updateCurrDst(155652)
updateCurrDst(155688)
updateCurrDst(155727)
updateCurrDst(155818)
updateCurrDst(155823)
updateCurrDst(155853)
updateCurrDst(155866)
updateCurrDst(156039)
updateCurrDst(156344)
updateCurrDst(156503)
updateCurrDst(157108)
updateCurrDst(157498)
updateCurrDst(157541)
updateCurrDst(157653)
updateCurrDst(157699)
updateCurrDst(157872)
updateCurrDst(157927)
updateCurrDst(157968)
Heartbeat CPU 0 instructions: 66000000 cycles: 51062716 heartbeat IPC: 0.331837 cumulative IPC: 0.333287 (Simulation time: 0 hr 4 min 41 sec) 
updateCurrDst(158284)
updateCurrDst(158304)
updateCurrDst(158375)
updateCurrDst(158602)
updateCurrDst(158633)
updateCurrDst(158651)
updateCurrDst(158696)
updateCurrDst(158737)
updateCurrDst(158849)
updateCurrDst(158911)
updateCurrDst(158925)
updateCurrDst(159244)
updateCurrDst(159265)
updateCurrDst(159288)
updateCurrDst(159333)
updateCurrDst(159341)
updateCurrDst(159374)
updateCurrDst(159430)
updateCurrDst(159465)
updateCurrDst(159639)
updateCurrDst(159782)
updateCurrDst(159879)
updateCurrDst(160046)
updateCurrDst(160123)
updateCurrDst(160205)
updateCurrDst(160233)
updateCurrDst(160306)
updateCurrDst(160322)
updateCurrDst(160345)
updateCurrDst(160350)
updateCurrDst(160476)
updateCurrDst(160636)
Heartbeat CPU 0 instructions: 67000001 cycles: 54073871 heartbeat IPC: 0.332099 cumulative IPC: 0.333188 (Simulation time: 0 hr 4 min 46 sec) 
updateCurrDst(160756)
updateCurrDst(160837)
updateCurrDst(160838)
updateCurrDst(160870)
updateCurrDst(160913)
updateCurrDst(161073)
updateCurrDst(161330)
updateCurrDst(161338)
updateCurrDst(161362)
updateCurrDst(161468)
updateCurrDst(161545)
updateCurrDst(161744)
updateCurrDst(161793)
updateCurrDst(161853)
updateCurrDst(161968)
updateCurrDst(162017)
updateCurrDst(162083)
updateCurrDst(162243)
updateCurrDst(162246)
updateCurrDst(162265)
updateCurrDst(162566)
updateCurrDst(162614)
updateCurrDst(162681)
updateCurrDst(162691)
updateCurrDst(162749)
updateCurrDst(162766)
updateCurrDst(162839)
updateCurrDst(162847)
updateCurrDst(162862)
updateCurrDst(162899)
updateCurrDst(162907)
updateCurrDst(163170)
updateCurrDst(163197)
updateCurrDst(163210)
updateCurrDst(163265)
updateCurrDst(163272)
updateCurrDst(163334)
updateCurrDst(163338)
Heartbeat CPU 0 instructions: 68000000 cycles: 57061152 heartbeat IPC: 0.334752 cumulative IPC: 0.333308 (Simulation time: 0 hr 4 min 52 sec) 
updateCurrDst(163527)
updateCurrDst(163529)
updateCurrDst(163544)
updateCurrDst(163642)
updateCurrDst(163689)
updateCurrDst(163781)
updateCurrDst(163782)
updateCurrDst(163834)
updateCurrDst(164048)
updateCurrDst(164245)
updateCurrDst(164246)
updateCurrDst(164264)
updateCurrDst(164291)
updateCurrDst(164430)
updateCurrDst(164549)
updateCurrDst(164770)
updateCurrDst(164931)
updateCurrDst(164967)
updateCurrDst(165090)
updateCurrDst(165271)
updateCurrDst(165287)
updateCurrDst(165384)
updateCurrDst(165407)
updateCurrDst(165504)
updateCurrDst(165674)
updateCurrDst(165753)
updateCurrDst(165923)
updateCurrDst(165942)
Heartbeat CPU 0 instructions: 69000001 cycles: 60042276 heartbeat IPC: 0.335444 cumulative IPC: 0.333459 (Simulation time: 0 hr 4 min 57 sec) 
updateCurrDst(166140)
updateCurrDst(166187)
updateCurrDst(166360)
updateCurrDst(166467)
updateCurrDst(166725)
updateCurrDst(166881)
updateCurrDst(166888)
updateCurrDst(166926)
updateCurrDst(167520)
updateCurrDst(167601)
updateCurrDst(167626)
updateCurrDst(167987)
updateCurrDst(168134)
updateCurrDst(168142)
updateCurrDst(168203)
updateCurrDst(168256)
updateCurrDst(168400)
updateCurrDst(168446)
Heartbeat CPU 0 instructions: 70000001 cycles: 63025149 heartbeat IPC: 0.335247 cumulative IPC: 0.333578 (Simulation time: 0 hr 5 min 2 sec) 
updateCurrDst(168549)
updateCurrDst(168552)
updateCurrDst(168650)
updateCurrDst(168681)
updateCurrDst(169036)
updateCurrDst(169057)
updateCurrDst(169148)
updateCurrDst(169282)
updateCurrDst(169365)
updateCurrDst(169389)
updateCurrDst(169425)
updateCurrDst(169474)
updateCurrDst(169506)
updateCurrDst(169642)
updateCurrDst(170132)
updateCurrDst(170228)
updateCurrDst(170325)
updateCurrDst(170326)
updateCurrDst(170417)
updateCurrDst(170818)
Heartbeat CPU 0 instructions: 71000000 cycles: 66012271 heartbeat IPC: 0.33477 cumulative IPC: 0.333652 (Simulation time: 0 hr 5 min 7 sec) 
updateCurrDst(171371)
updateCurrDst(171391)
updateCurrDst(171414)
updateCurrDst(171454)
updateCurrDst(171542)
updateCurrDst(171640)
updateCurrDst(171957)
updateCurrDst(172206)
updateCurrDst(172229)
updateCurrDst(172247)
updateCurrDst(172306)
updateCurrDst(172504)
updateCurrDst(172579)
updateCurrDst(172606)
updateCurrDst(172655)
updateCurrDst(172778)
updateCurrDst(172841)
updateCurrDst(173318)
updateCurrDst(173492)
updateCurrDst(173586)
updateCurrDst(173633)
updateCurrDst(173646)
updateCurrDst(173664)
Heartbeat CPU 0 instructions: 72000000 cycles: 68996649 heartbeat IPC: 0.335078 cumulative IPC: 0.333736 (Simulation time: 0 hr 5 min 12 sec) 
updateCurrDst(173732)
updateCurrDst(173803)
updateCurrDst(173891)
updateCurrDst(173960)
updateCurrDst(174068)
updateCurrDst(174170)
updateCurrDst(174588)
updateCurrDst(174656)
updateCurrDst(174776)
updateCurrDst(174780)
updateCurrDst(174951)
updateCurrDst(175009)
updateCurrDst(175094)
updateCurrDst(175205)
updateCurrDst(175244)
updateCurrDst(175332)
updateCurrDst(175559)
updateCurrDst(175619)
updateCurrDst(175626)
updateCurrDst(175717)
updateCurrDst(175755)
updateCurrDst(175775)
updateCurrDst(175799)
updateCurrDst(175940)
updateCurrDst(176039)
updateCurrDst(176112)
updateCurrDst(176182)
updateCurrDst(176283)
Heartbeat CPU 0 instructions: 73000000 cycles: 71974565 heartbeat IPC: 0.335805 cumulative IPC: 0.33385 (Simulation time: 0 hr 5 min 16 sec) 
updateCurrDst(176341)
updateCurrDst(176349)
updateCurrDst(176504)
updateCurrDst(176528)
updateCurrDst(176752)
updateCurrDst(176926)
updateCurrDst(176965)
updateCurrDst(177026)
updateCurrDst(177766)
updateCurrDst(177879)
updateCurrDst(178039)
updateCurrDst(178128)
updateCurrDst(178188)
updateCurrDst(178647)
Heartbeat CPU 0 instructions: 74000000 cycles: 74955662 heartbeat IPC: 0.335447 cumulative IPC: 0.333934 (Simulation time: 0 hr 5 min 22 sec) 
updateCurrDst(179090)
updateCurrDst(179145)
updateCurrDst(179156)
updateCurrDst(179206)
updateCurrDst(179226)
updateCurrDst(179326)
updateCurrDst(179339)
updateCurrDst(179442)
updateCurrDst(179690)
updateCurrDst(179842)
updateCurrDst(179947)
updateCurrDst(179980)
updateCurrDst(180064)
updateCurrDst(180323)
updateCurrDst(180458)
updateCurrDst(180480)
updateCurrDst(180486)
updateCurrDst(180552)
updateCurrDst(180738)
updateCurrDst(180786)
updateCurrDst(180972)
updateCurrDst(181013)
updateCurrDst(181230)
updateCurrDst(181441)
updateCurrDst(181455)
updateCurrDst(181517)
Heartbeat CPU 0 instructions: 75000000 cycles: 77965150 heartbeat IPC: 0.332282 cumulative IPC: 0.333851 (Simulation time: 0 hr 5 min 28 sec) 
updateCurrDst(181556)
updateCurrDst(181607)
updateCurrDst(181627)
updateCurrDst(181684)
updateCurrDst(181709)
updateCurrDst(182074)
updateCurrDst(182249)
updateCurrDst(182303)
updateCurrDst(182313)
updateCurrDst(182351)
updateCurrDst(182384)
updateCurrDst(182391)
updateCurrDst(182428)
updateCurrDst(182434)
updateCurrDst(182531)
updateCurrDst(182631)
updateCurrDst(182803)
updateCurrDst(182876)
updateCurrDst(182949)
updateCurrDst(182963)
updateCurrDst(183012)
updateCurrDst(183197)
updateCurrDst(183242)
updateCurrDst(183698)
updateCurrDst(183716)
updateCurrDst(183820)
updateCurrDst(183908)
updateCurrDst(184022)
updateCurrDst(184143)
Heartbeat CPU 0 instructions: 76000002 cycles: 80975531 heartbeat IPC: 0.332185 cumulative IPC: 0.333771 (Simulation time: 0 hr 5 min 33 sec) 
updateCurrDst(184461)
updateCurrDst(184500)
updateCurrDst(184541)
updateCurrDst(184590)
updateCurrDst(184714)
updateCurrDst(184767)
updateCurrDst(184958)
updateCurrDst(185120)
updateCurrDst(185260)
updateCurrDst(185276)
updateCurrDst(185367)
updateCurrDst(185429)
updateCurrDst(185566)
updateCurrDst(185724)
updateCurrDst(186116)
updateCurrDst(186416)
updateCurrDst(186445)
updateCurrDst(186496)
updateCurrDst(186559)
updateCurrDst(186640)
updateCurrDst(186641)
updateCurrDst(186644)
updateCurrDst(186669)
updateCurrDst(186675)
Heartbeat CPU 0 instructions: 77000000 cycles: 84001884 heartbeat IPC: 0.33043 cumulative IPC: 0.333618 (Simulation time: 0 hr 5 min 39 sec) 
updateCurrDst(186825)
updateCurrDst(187216)
updateCurrDst(187260)
updateCurrDst(187419)
updateCurrDst(187492)
updateCurrDst(187497)
updateCurrDst(187521)
updateCurrDst(187778)
updateCurrDst(187943)
updateCurrDst(188058)
updateCurrDst(188093)
updateCurrDst(188525)
updateCurrDst(188544)
updateCurrDst(188623)
updateCurrDst(188756)
updateCurrDst(188798)
updateCurrDst(188957)
updateCurrDst(188976)
updateCurrDst(189104)
updateCurrDst(189120)
updateCurrDst(189129)
updateCurrDst(189220)
updateCurrDst(189234)
Heartbeat CPU 0 instructions: 78000000 cycles: 87018812 heartbeat IPC: 0.331463 cumulative IPC: 0.333523 (Simulation time: 0 hr 5 min 45 sec) 
updateCurrDst(189406)
updateCurrDst(189503)
updateCurrDst(189507)
updateCurrDst(189603)
updateCurrDst(189816)
updateCurrDst(190030)
updateCurrDst(190092)
updateCurrDst(190165)
updateCurrDst(190393)
updateCurrDst(190587)
updateCurrDst(190612)
updateCurrDst(190647)
updateCurrDst(190785)
updateCurrDst(190790)
updateCurrDst(191264)
updateCurrDst(191378)
updateCurrDst(191398)
updateCurrDst(191416)
updateCurrDst(191599)
updateCurrDst(191672)
updateCurrDst(191798)
updateCurrDst(191831)
updateCurrDst(191919)
updateCurrDst(191926)
Heartbeat CPU 0 instructions: 79000001 cycles: 90032417 heartbeat IPC: 0.331829 cumulative IPC: 0.333453 (Simulation time: 0 hr 5 min 51 sec) 
updateCurrDst(191967)
updateCurrDst(191983)
updateCurrDst(192000)
updateCurrDst(192025)
updateCurrDst(192061)
updateCurrDst(192139)
updateCurrDst(192299)
updateCurrDst(192435)
updateCurrDst(192561)
updateCurrDst(192646)
updateCurrDst(192829)
updateCurrDst(193106)
updateCurrDst(193122)
updateCurrDst(193151)
updateCurrDst(193273)
updateCurrDst(193322)
updateCurrDst(193393)
updateCurrDst(193811)
updateCurrDst(194074)
updateCurrDst(194122)
updateCurrDst(194136)
updateCurrDst(194248)
updateCurrDst(194311)
Heartbeat CPU 0 instructions: 80000000 cycles: 93063656 heartbeat IPC: 0.329898 cumulative IPC: 0.333309 (Simulation time: 0 hr 5 min 56 sec) 
updateCurrDst(194635)
updateCurrDst(194808)
updateCurrDst(194853)
updateCurrDst(194877)
updateCurrDst(194880)
updateCurrDst(194994)
updateCurrDst(195050)
updateCurrDst(195277)
updateCurrDst(195336)
updateCurrDst(195347)
updateCurrDst(195414)
updateCurrDst(195509)
updateCurrDst(195549)
updateCurrDst(195687)
updateCurrDst(195762)
updateCurrDst(195832)
updateCurrDst(196037)
updateCurrDst(196348)
updateCurrDst(196381)
updateCurrDst(196534)
updateCurrDst(196652)
updateCurrDst(196705)
updateCurrDst(196773)
updateCurrDst(196779)
updateCurrDst(196789)
updateCurrDst(196834)
updateCurrDst(197069)
updateCurrDst(197095)
Heartbeat CPU 0 instructions: 81000002 cycles: 96058295 heartbeat IPC: 0.333931 cumulative IPC: 0.333333 (Simulation time: 0 hr 6 min 2 sec) 
updateCurrDst(197350)
updateCurrDst(197367)
updateCurrDst(197482)
updateCurrDst(197495)
updateCurrDst(197548)
updateCurrDst(197620)
updateCurrDst(197826)
updateCurrDst(197840)
updateCurrDst(198159)
updateCurrDst(198190)
updateCurrDst(198250)
updateCurrDst(198311)
updateCurrDst(198325)
updateCurrDst(198327)
updateCurrDst(198367)
updateCurrDst(198550)
updateCurrDst(198645)
updateCurrDst(198651)
updateCurrDst(198715)
updateCurrDst(198722)
updateCurrDst(198962)
updateCurrDst(199024)
updateCurrDst(199067)
updateCurrDst(199088)
updateCurrDst(199118)
updateCurrDst(199363)
updateCurrDst(199364)
updateCurrDst(199381)
updateCurrDst(199384)
updateCurrDst(199470)
updateCurrDst(199563)
updateCurrDst(199600)
updateCurrDst(199685)
Heartbeat CPU 0 instructions: 82000001 cycles: 99049075 heartbeat IPC: 0.334361 cumulative IPC: 0.333371 (Simulation time: 0 hr 6 min 7 sec) 
updateCurrDst(199850)
updateCurrDst(199896)
updateCurrDst(199908)
updateCurrDst(199995)
updateCurrDst(200042)
updateCurrDst(200229)
updateCurrDst(200635)
updateCurrDst(200653)
updateCurrDst(200709)
updateCurrDst(200993)
updateCurrDst(201473)
updateCurrDst(201675)
updateCurrDst(201770)
updateCurrDst(201922)
updateCurrDst(202068)
updateCurrDst(202195)
updateCurrDst(202212)
updateCurrDst(202328)
Heartbeat CPU 0 instructions: 83000000 cycles: 102021913 heartbeat IPC: 0.336379 cumulative IPC: 0.333477 (Simulation time: 0 hr 6 min 12 sec) 
updateCurrDst(202388)
updateCurrDst(202519)
updateCurrDst(202578)
updateCurrDst(202937)
updateCurrDst(203006)
updateCurrDst(203101)
updateCurrDst(203315)
updateCurrDst(203525)
updateCurrDst(203569)
updateCurrDst(203729)
updateCurrDst(203742)
updateCurrDst(203807)
updateCurrDst(203981)
updateCurrDst(204052)
updateCurrDst(204111)
updateCurrDst(204171)
updateCurrDst(204201)
updateCurrDst(204251)
updateCurrDst(204600)
updateCurrDst(204908)
Heartbeat CPU 0 instructions: 84000003 cycles: 105024916 heartbeat IPC: 0.333001 cumulative IPC: 0.333461 (Simulation time: 0 hr 6 min 17 sec) 
updateCurrDst(205138)
updateCurrDst(205156)
updateCurrDst(205630)
updateCurrDst(205642)
updateCurrDst(205653)
updateCurrDst(205663)
updateCurrDst(205713)
updateCurrDst(205724)
updateCurrDst(205767)
updateCurrDst(205789)
updateCurrDst(205816)
updateCurrDst(205995)
updateCurrDst(206074)
updateCurrDst(206500)
updateCurrDst(206624)
updateCurrDst(207062)
updateCurrDst(207379)
Heartbeat CPU 0 instructions: 85000001 cycles: 108002923 heartbeat IPC: 0.335794 cumulative IPC: 0.333538 (Simulation time: 0 hr 6 min 23 sec) 
updateCurrDst(207599)
updateCurrDst(207606)
updateCurrDst(207614)
updateCurrDst(207667)
updateCurrDst(207795)
updateCurrDst(207861)
updateCurrDst(207950)
updateCurrDst(208078)
updateCurrDst(208190)
updateCurrDst(208196)
updateCurrDst(208265)
updateCurrDst(208340)
updateCurrDst(208376)
updateCurrDst(208404)
updateCurrDst(208585)
updateCurrDst(208707)
updateCurrDst(208741)
updateCurrDst(208873)
updateCurrDst(208927)
updateCurrDst(209021)
updateCurrDst(209036)
updateCurrDst(209060)
updateCurrDst(209172)
updateCurrDst(209224)
updateCurrDst(209292)
updateCurrDst(209304)
updateCurrDst(209476)
updateCurrDst(209650)
updateCurrDst(209677)
updateCurrDst(209747)
updateCurrDst(209750)
updateCurrDst(209761)
updateCurrDst(209773)
Heartbeat CPU 0 instructions: 86000000 cycles: 110977064 heartbeat IPC: 0.336231 cumulative IPC: 0.333624 (Simulation time: 0 hr 6 min 29 sec) 
updateCurrDst(210613)
updateCurrDst(210679)
updateCurrDst(210853)
updateCurrDst(211187)
updateCurrDst(211248)
updateCurrDst(211260)
updateCurrDst(211279)
updateCurrDst(211295)
updateCurrDst(211668)
updateCurrDst(211741)
updateCurrDst(211809)
updateCurrDst(211848)
updateCurrDst(211913)
updateCurrDst(212112)
updateCurrDst(212127)
updateCurrDst(212139)
updateCurrDst(212141)
updateCurrDst(212349)
updateCurrDst(212421)
updateCurrDst(212433)
updateCurrDst(212627)
updateCurrDst(212630)
Heartbeat CPU 0 instructions: 87000001 cycles: 113959916 heartbeat IPC: 0.33525 cumulative IPC: 0.333675 (Simulation time: 0 hr 6 min 35 sec) 
updateCurrDst(213068)
updateCurrDst(213075)
updateCurrDst(213120)
updateCurrDst(213251)
updateCurrDst(213308)
updateCurrDst(213335)
updateCurrDst(213404)
updateCurrDst(213450)
updateCurrDst(213630)
updateCurrDst(213641)
updateCurrDst(213680)
updateCurrDst(213865)
updateCurrDst(214038)
updateCurrDst(214405)
updateCurrDst(214418)
updateCurrDst(214623)
updateCurrDst(214674)
updateCurrDst(214689)
updateCurrDst(214866)
updateCurrDst(214870)
updateCurrDst(214891)
updateCurrDst(215026)
updateCurrDst(215192)
updateCurrDst(215227)
updateCurrDst(215280)
updateCurrDst(215299)
updateCurrDst(215374)
Heartbeat CPU 0 instructions: 88000000 cycles: 116938389 heartbeat IPC: 0.335742 cumulative IPC: 0.333737 (Simulation time: 0 hr 6 min 41 sec) 
updateCurrDst(215498)
updateCurrDst(215526)
updateCurrDst(215727)
updateCurrDst(215857)
updateCurrDst(215883)
updateCurrDst(215922)
updateCurrDst(216109)
updateCurrDst(216192)
updateCurrDst(216404)
updateCurrDst(216503)
updateCurrDst(216657)
updateCurrDst(216660)
updateCurrDst(216702)
updateCurrDst(216908)
updateCurrDst(216910)
updateCurrDst(216918)
updateCurrDst(217171)
updateCurrDst(217441)
updateCurrDst(217500)
updateCurrDst(217784)
updateCurrDst(217800)
updateCurrDst(217875)
updateCurrDst(217899)
updateCurrDst(217906)
Heartbeat CPU 0 instructions: 89000001 cycles: 119913976 heartbeat IPC: 0.336068 cumulative IPC: 0.333805 (Simulation time: 0 hr 6 min 48 sec) 
updateCurrDst(218004)
updateCurrDst(218204)
updateCurrDst(218235)
updateCurrDst(218244)
updateCurrDst(218400)
updateCurrDst(218543)
updateCurrDst(218578)
updateCurrDst(218803)
updateCurrDst(218806)
updateCurrDst(218831)
updateCurrDst(218957)
updateCurrDst(219125)
updateCurrDst(219138)
updateCurrDst(219536)
updateCurrDst(219607)
updateCurrDst(219685)
updateCurrDst(219687)
updateCurrDst(219802)
updateCurrDst(219811)
updateCurrDst(219829)
updateCurrDst(219833)
updateCurrDst(219863)
updateCurrDst(219900)
updateCurrDst(220113)
updateCurrDst(220149)
updateCurrDst(220236)
updateCurrDst(220448)
updateCurrDst(220463)
updateCurrDst(220492)
updateCurrDst(220553)
updateCurrDst(220585)
Heartbeat CPU 0 instructions: 90000001 cycles: 122883417 heartbeat IPC: 0.336764 cumulative IPC: 0.333889 (Simulation time: 0 hr 6 min 54 sec) 
updateCurrDst(220680)
updateCurrDst(220883)
updateCurrDst(220899)
updateCurrDst(221146)
updateCurrDst(221321)
updateCurrDst(221398)
updateCurrDst(221511)
updateCurrDst(221532)
updateCurrDst(221575)
updateCurrDst(221614)
updateCurrDst(221732)
updateCurrDst(221737)
updateCurrDst(221872)
updateCurrDst(222076)
updateCurrDst(222101)
updateCurrDst(222145)
updateCurrDst(222161)
updateCurrDst(222176)
updateCurrDst(222255)
updateCurrDst(222429)
updateCurrDst(222541)
updateCurrDst(222795)
updateCurrDst(223020)
updateCurrDst(223052)
updateCurrDst(223113)
Heartbeat CPU 0 instructions: 91000003 cycles: 125866677 heartbeat IPC: 0.335204 cumulative IPC: 0.333925 (Simulation time: 0 hr 6 min 59 sec) 
updateCurrDst(223188)
updateCurrDst(223216)
updateCurrDst(223264)
updateCurrDst(223392)
updateCurrDst(223484)
updateCurrDst(223660)
updateCurrDst(224091)
updateCurrDst(224171)
updateCurrDst(224207)
updateCurrDst(224365)
updateCurrDst(224475)
updateCurrDst(224502)
updateCurrDst(224518)
updateCurrDst(224767)
updateCurrDst(224787)
updateCurrDst(224868)
updateCurrDst(224886)
updateCurrDst(224895)
updateCurrDst(224906)
updateCurrDst(225033)
updateCurrDst(225088)
updateCurrDst(225111)
updateCurrDst(225510)
updateCurrDst(225762)
Heartbeat CPU 0 instructions: 92000000 cycles: 128845783 heartbeat IPC: 0.33567 cumulative IPC: 0.333972 (Simulation time: 0 hr 7 min 4 sec) 
updateCurrDst(225877)
updateCurrDst(225938)
updateCurrDst(225992)
updateCurrDst(226054)
updateCurrDst(226175)
updateCurrDst(226204)
updateCurrDst(226292)
updateCurrDst(226308)
updateCurrDst(226562)
updateCurrDst(226678)
updateCurrDst(226780)
updateCurrDst(226815)
updateCurrDst(226837)
updateCurrDst(226898)
updateCurrDst(226996)
updateCurrDst(227268)
updateCurrDst(227365)
updateCurrDst(227384)
updateCurrDst(227404)
updateCurrDst(227524)
updateCurrDst(227639)
updateCurrDst(227670)
updateCurrDst(227715)
updateCurrDst(227755)
updateCurrDst(227836)
updateCurrDst(227994)
updateCurrDst(228169)
updateCurrDst(228298)
updateCurrDst(228316)
Heartbeat CPU 0 instructions: 93000000 cycles: 131820429 heartbeat IPC: 0.336174 cumulative IPC: 0.33403 (Simulation time: 0 hr 7 min 9 sec) 
updateCurrDst(228384)
updateCurrDst(228511)
updateCurrDst(228627)
updateCurrDst(228657)
updateCurrDst(228682)
updateCurrDst(228691)
updateCurrDst(228708)
updateCurrDst(228749)
updateCurrDst(228907)
updateCurrDst(228957)
updateCurrDst(229117)
updateCurrDst(229149)
updateCurrDst(229243)
updateCurrDst(229294)
updateCurrDst(229317)
updateCurrDst(229390)
updateCurrDst(229588)
updateCurrDst(229643)
updateCurrDst(229879)
updateCurrDst(229951)
updateCurrDst(230086)
updateCurrDst(230176)
updateCurrDst(230297)
updateCurrDst(230389)
updateCurrDst(230622)
updateCurrDst(230642)
updateCurrDst(230709)
updateCurrDst(230782)
updateCurrDst(230785)
Heartbeat CPU 0 instructions: 94000003 cycles: 134799951 heartbeat IPC: 0.335625 cumulative IPC: 0.334071 (Simulation time: 0 hr 7 min 15 sec) 
updateCurrDst(231026)
updateCurrDst(231334)
updateCurrDst(231680)
updateCurrDst(231722)
updateCurrDst(231785)
updateCurrDst(231911)
updateCurrDst(231918)
updateCurrDst(232119)
updateCurrDst(232146)
updateCurrDst(232175)
updateCurrDst(232292)
updateCurrDst(232344)
updateCurrDst(232493)
updateCurrDst(232542)
updateCurrDst(232673)
updateCurrDst(232720)
updateCurrDst(232748)
updateCurrDst(232850)
updateCurrDst(232884)
updateCurrDst(232946)
updateCurrDst(232991)
updateCurrDst(233225)
updateCurrDst(233250)
updateCurrDst(233255)
updateCurrDst(233263)
updateCurrDst(233280)
updateCurrDst(233402)
updateCurrDst(233404)
Heartbeat CPU 0 instructions: 95000003 cycles: 137775842 heartbeat IPC: 0.336034 cumulative IPC: 0.334119 (Simulation time: 0 hr 7 min 21 sec) 
updateCurrDst(233579)
updateCurrDst(233735)
updateCurrDst(233756)
updateCurrDst(233871)
updateCurrDst(234286)
updateCurrDst(234403)
updateCurrDst(234495)
updateCurrDst(234599)
updateCurrDst(234763)
updateCurrDst(234798)
updateCurrDst(234915)
updateCurrDst(234952)
updateCurrDst(235025)
updateCurrDst(235190)
updateCurrDst(235292)
updateCurrDst(235388)
updateCurrDst(235476)
updateCurrDst(235479)
updateCurrDst(235548)
updateCurrDst(235553)
updateCurrDst(235838)
updateCurrDst(235991)
Heartbeat CPU 0 instructions: 96000003 cycles: 140762183 heartbeat IPC: 0.334858 cumulative IPC: 0.334137 (Simulation time: 0 hr 7 min 26 sec) 
updateCurrDst(236305)
updateCurrDst(236327)
updateCurrDst(236401)
updateCurrDst(236534)
updateCurrDst(237039)
updateCurrDst(237042)
updateCurrDst(237198)
updateCurrDst(237203)
updateCurrDst(237386)
updateCurrDst(237785)
updateCurrDst(237924)
updateCurrDst(238008)
updateCurrDst(238104)
updateCurrDst(238297)
updateCurrDst(238345)
updateCurrDst(238424)
updateCurrDst(238571)
Heartbeat CPU 0 instructions: 97000000 cycles: 143794911 heartbeat IPC: 0.329735 cumulative IPC: 0.334031 (Simulation time: 0 hr 7 min 31 sec) 
updateCurrDst(239004)
updateCurrDst(239021)
updateCurrDst(239058)
updateCurrDst(239063)
updateCurrDst(239077)
updateCurrDst(239093)
updateCurrDst(239311)
updateCurrDst(239518)
updateCurrDst(239523)
updateCurrDst(239543)
updateCurrDst(239555)
updateCurrDst(239618)
updateCurrDst(239631)
updateCurrDst(239698)
updateCurrDst(239730)
updateCurrDst(239834)
updateCurrDst(239928)
updateCurrDst(240119)
updateCurrDst(240220)
updateCurrDst(240336)
updateCurrDst(240425)
updateCurrDst(240480)
updateCurrDst(240560)
updateCurrDst(240575)
updateCurrDst(240732)
updateCurrDst(240803)
updateCurrDst(240861)
updateCurrDst(240895)
updateCurrDst(240982)
updateCurrDst(241000)
updateCurrDst(241037)
updateCurrDst(241275)
Heartbeat CPU 0 instructions: 98000000 cycles: 146832546 heartbeat IPC: 0.329203 cumulative IPC: 0.333917 (Simulation time: 0 hr 7 min 37 sec) 
updateCurrDst(241719)
updateCurrDst(241895)
updateCurrDst(241923)
updateCurrDst(242014)
updateCurrDst(242076)
updateCurrDst(242099)
updateCurrDst(242216)
updateCurrDst(242439)
updateCurrDst(242484)
updateCurrDst(242614)
updateCurrDst(242705)
updateCurrDst(242888)
updateCurrDst(242932)
updateCurrDst(243053)
updateCurrDst(243113)
updateCurrDst(243147)
updateCurrDst(243192)
updateCurrDst(243210)
updateCurrDst(243217)
updateCurrDst(243270)
updateCurrDst(243281)
updateCurrDst(243706)
Heartbeat CPU 0 instructions: 99000000 cycles: 149862906 heartbeat IPC: 0.329994 cumulative IPC: 0.333827 (Simulation time: 0 hr 7 min 43 sec) 
updateCurrDst(244148)
updateCurrDst(244165)
updateCurrDst(244334)
updateCurrDst(244878)
updateCurrDst(245000)
updateCurrDst(245031)
updateCurrDst(245078)
updateCurrDst(245133)
updateCurrDst(245188)
updateCurrDst(245285)
updateCurrDst(245356)
updateCurrDst(245372)
updateCurrDst(245425)
updateCurrDst(245707)
updateCurrDst(245766)
updateCurrDst(245908)
updateCurrDst(246113)
updateCurrDst(246397)
updateCurrDst(246542)
Heartbeat CPU 0 instructions: 100000001 cycles: 152891574 heartbeat IPC: 0.330178 cumulative IPC: 0.333745 (Simulation time: 0 hr 7 min 49 sec) 
updateCurrDst(246560)
updateCurrDst(246878)
updateCurrDst(247010)
updateCurrDst(247447)
updateCurrDst(247461)
updateCurrDst(247471)
updateCurrDst(247523)
updateCurrDst(247537)
updateCurrDst(247543)
updateCurrDst(247591)
updateCurrDst(247641)
updateCurrDst(247739)
updateCurrDst(247828)
updateCurrDst(247887)
updateCurrDst(247963)
updateCurrDst(248113)
updateCurrDst(248518)
updateCurrDst(248525)
updateCurrDst(248535)
updateCurrDst(248578)
updateCurrDst(248804)
updateCurrDst(249031)
updateCurrDst(249049)
updateCurrDst(249080)
updateCurrDst(249102)
updateCurrDst(249109)
updateCurrDst(249131)
Heartbeat CPU 0 instructions: 101000001 cycles: 155924062 heartbeat IPC: 0.329762 cumulative IPC: 0.333658 (Simulation time: 0 hr 7 min 54 sec) 
updateCurrDst(249151)
updateCurrDst(249747)
updateCurrDst(249774)
updateCurrDst(250024)
updateCurrDst(250144)
updateCurrDst(250235)
updateCurrDst(250280)
updateCurrDst(250291)
updateCurrDst(250366)
updateCurrDst(250390)
updateCurrDst(250458)
updateCurrDst(250566)
updateCurrDst(250755)
updateCurrDst(251041)
updateCurrDst(251309)
updateCurrDst(251399)
Heartbeat CPU 0 instructions: 102000002 cycles: 158957606 heartbeat IPC: 0.329648 cumulative IPC: 0.333571 (Simulation time: 0 hr 7 min 59 sec) 
updateCurrDst(251938)
updateCurrDst(251967)
updateCurrDst(251993)
updateCurrDst(252079)
updateCurrDst(252162)
updateCurrDst(252196)
updateCurrDst(252352)
updateCurrDst(252355)
updateCurrDst(252473)
updateCurrDst(252502)
updateCurrDst(252616)
updateCurrDst(252770)
updateCurrDst(252924)
updateCurrDst(253026)
updateCurrDst(253138)
updateCurrDst(253161)
updateCurrDst(253182)
updateCurrDst(253320)
updateCurrDst(253332)
updateCurrDst(253335)
updateCurrDst(253532)
updateCurrDst(253547)
updateCurrDst(253560)
updateCurrDst(253644)
updateCurrDst(253819)
Heartbeat CPU 0 instructions: 103000000 cycles: 161989701 heartbeat IPC: 0.329804 cumulative IPC: 0.333492 (Simulation time: 0 hr 8 min 5 sec) 
updateCurrDst(254475)
updateCurrDst(254506)
updateCurrDst(254530)
updateCurrDst(254545)
updateCurrDst(254783)
updateCurrDst(254878)
updateCurrDst(254967)
updateCurrDst(255075)
updateCurrDst(255122)
updateCurrDst(255186)
updateCurrDst(255322)
updateCurrDst(255337)
updateCurrDst(255498)
updateCurrDst(255501)
updateCurrDst(255802)
updateCurrDst(255950)
updateCurrDst(255969)
updateCurrDst(256005)
updateCurrDst(256129)
updateCurrDst(256368)
updateCurrDst(256506)
updateCurrDst(256604)
updateCurrDst(256698)
updateCurrDst(256759)
updateCurrDst(256770)
updateCurrDst(256783)
updateCurrDst(256853)
updateCurrDst(256902)
Heartbeat CPU 0 instructions: 104000000 cycles: 165023516 heartbeat IPC: 0.329618 cumulative IPC: 0.333412 (Simulation time: 0 hr 8 min 11 sec) 
updateCurrDst(256995)
updateCurrDst(257013)
updateCurrDst(257083)
updateCurrDst(257166)
updateCurrDst(257348)
updateCurrDst(257410)
updateCurrDst(257505)
updateCurrDst(257597)
updateCurrDst(257706)
updateCurrDst(257775)
updateCurrDst(257878)
updateCurrDst(257938)
updateCurrDst(257979)
updateCurrDst(258004)
updateCurrDst(258150)
updateCurrDst(258283)
updateCurrDst(258707)
updateCurrDst(258723)
updateCurrDst(258750)
updateCurrDst(258915)
updateCurrDst(259148)
updateCurrDst(259177)
updateCurrDst(259198)
Heartbeat CPU 0 instructions: 105000001 cycles: 168059615 heartbeat IPC: 0.32937 cumulative IPC: 0.33333 (Simulation time: 0 hr 8 min 16 sec) 
updateCurrDst(259828)
updateCurrDst(259890)
updateCurrDst(259938)
updateCurrDst(260186)
updateCurrDst(260289)
updateCurrDst(260333)
updateCurrDst(260374)
updateCurrDst(260435)
updateCurrDst(260580)
updateCurrDst(260756)
updateCurrDst(260779)
updateCurrDst(260797)
updateCurrDst(260853)
updateCurrDst(261041)
updateCurrDst(261077)
updateCurrDst(261155)
updateCurrDst(261179)
updateCurrDst(261298)
updateCurrDst(261367)
updateCurrDst(261463)
updateCurrDst(261540)
updateCurrDst(261636)
updateCurrDst(261677)
updateCurrDst(261745)
updateCurrDst(261760)
updateCurrDst(261886)
updateCurrDst(261901)
updateCurrDst(261916)
updateCurrDst(261944)
updateCurrDst(261980)
updateCurrDst(262016)
updateCurrDst(262040)
Heartbeat CPU 0 instructions: 106000000 cycles: 171081030 heartbeat IPC: 0.33097 cumulative IPC: 0.333283 (Simulation time: 0 hr 8 min 21 sec) 
*** Reached end of trace for Core: 0 Repeating trace: tracer/pull_u18_k2.xzafter: 106015477
PIN_registerGraphs(random_u18_k2.sg,1)
Graphh Number of Nodes: 262144
Heartbeat CPU 0 instructions: 107000001 cycles: 174089265 heartbeat IPC: 0.332421 cumulative IPC: 0.333267 (Simulation time: 0 hr 8 min 29 sec) 
Heartbeat CPU 0 instructions: 108000001 cycles: 175589269 heartbeat IPC: 0.666665 cumulative IPC: 0.336441 (Simulation time: 0 hr 8 min 33 sec) 
Heartbeat CPU 0 instructions: 109000001 cycles: 177089265 heartbeat IPC: 0.666668 cumulative IPC: 0.339556 (Simulation time: 0 hr 8 min 37 sec) 
Heartbeat CPU 0 instructions: 110000000 cycles: 178591261 heartbeat IPC: 0.66578 cumulative IPC: 0.342608 (Simulation time: 0 hr 8 min 41 sec) 
Finished CPU 0 instructions: 55000000 cycles: 160533114 cumulative IPC: 0.342608 (Simulation time: 0 hr 8 min 41 sec) 

ChampSim completed all CPUs

Region of Interest Statistics

CPU 0 cumulative IPC: 0.342608 instructions: 55000000 cycles: 160533114

Total ROB STALLS:                   20218796
STLB MISS ROB STALLS:                    986
L1D  LOAD MISS ROB STALLS:            569130  Translation MISS ROB STALLS:             0
L2C  LOAD MISS ROB STALLS:            360572  Translation MISS ROB STALLS:             0
LLC  LOAD MISS ROB STALLS:             55128  Translation MISS ROB STALLS:             0

ITLB TOTAL     ACCESS:           7820462  HIT:    7820429  MISS:         33  HIT %:    99.9996  MISS %: 0.00042197   MPKI: 0.0006
ITLB LOAD TRANSLATION ACCESS:    7820462  HIT:    7820429  MISS:         33  HIT %:    99.9996  MISS %: 0.00042197   MPKI: 0.0006
ITLB AVERAGE MISS LATENCY:       217.758 cycles
ITLB RQ ACCESS:     8626018	FORWARD:           0	MERGED:       805555	TO_CACHE:    7820463

DTLB TOTAL     ACCESS:          16347671  HIT:   15938448  MISS:     409223  HIT %:    97.4968  MISS %:    2.50325   MPKI: 7.44042
DTLB LOAD TRANSLATION ACCESS:   16347671  HIT:   15938448  MISS:     409223  HIT %:    97.4968  MISS %:    2.50325   MPKI: 7.44042
DTLB AVERAGE MISS LATENCY:       9.57395 cycles
DTLB RQ ACCESS:    22844316	FORWARD:           0	MERGED:      6495750	TO_CACHE:   16348566

STLB TOTAL     ACCESS:            409256  HIT:     408111  MISS:       1145  HIT %:    99.7202  MISS %:   0.279776   MPKI: 0.0208182
STLB LOAD TRANSLATION ACCESS:     409256  HIT:     408111  MISS:       1145  HIT %:    99.7202  MISS %:   0.279776   MPKI: 0.0208182
STLB AVERAGE MISS LATENCY:       211.147 cycles
STLB RQ ACCESS:      409256	FORWARD:           0	MERGED:            0	TO_CACHE:     409256

PSCL5 TOTAL     ACCESS:              1145  HIT:       1145  MISS:          0  HIT %:        100  MISS %:          0   MPKI: 0
PSCL5 LOAD TRANSLATION ACCESS:       1145  HIT:       1145  MISS:          0  HIT %:        100  MISS %:          0   MPKI: 0

PSCL4 TOTAL     ACCESS:              1145  HIT:       1145  MISS:          0  HIT %:        100  MISS %:          0   MPKI: 0
PSCL4 LOAD TRANSLATION ACCESS:       1145  HIT:       1145  MISS:          0  HIT %:        100  MISS %:          0   MPKI: 0

PSCL3 TOTAL     ACCESS:              1145  HIT:       1145  MISS:          0  HIT %:        100  MISS %:          0   MPKI: 0
PSCL3 LOAD TRANSLATION ACCESS:       1145  HIT:       1145  MISS:          0  HIT %:        100  MISS %:          0   MPKI: 0

PSCL2 TOTAL     ACCESS:              1145  HIT:       1145  MISS:          0  HIT %:        100  MISS %:          0   MPKI: 0
PSCL2 LOAD TRANSLATION ACCESS:       1145  HIT:       1145  MISS:          0  HIT %:        100  MISS %:          0   MPKI: 0

L1D TOTAL     ACCESS:          22750729  HIT:   22153916  MISS:     596813  HIT %:    97.3767  MISS %:    2.62327   MPKI: 10.8511  USED:      83044  UNUSED:     513769
L1D LOAD      ACCESS:          10006669  HIT:    9437426  MISS:     569243  HIT %:    94.3114  MISS %:    5.68864   MPKI: 10.3499  USED:      82997  UNUSED:     487013
L1D RFO       ACCESS:          12744060  HIT:   12716490  MISS:      27570  HIT %:    99.7837  MISS %:   0.216336   MPKI: 0.501273
L1D PTL1 TRANSLATION ACCESS:          0  HIT:          0  MISS:          0  HIT %:       -nan  MISS %:       -nan   MPKI: 0
L1D PTL2 TRANSLATION ACCESS:          0  HIT:          0  MISS:          0  HIT %:       -nan  MISS %:       -nan   MPKI: 0
L1D PTL3 TRANSLATION ACCESS:          0  HIT:          0  MISS:          0  HIT %:       -nan  MISS %:       -nan   MPKI: 0
L1D PTL4 TRANSLATION ACCESS:          0  HIT:          0  MISS:          0  HIT %:       -nan  MISS %:       -nan   MPKI: 0
L1D PTL5 TRANSLATION ACCESS:          0  HIT:          0  MISS:          0  HIT %:       -nan  MISS %:       -nan   MPKI: 0
L1D TOTAL EVICTIONS:             596813  TRANSLATION EVICTIONS:          0  TRANSLATION EVICTING TRANSALTION:          0  TRANSLATION EVICTING LOAD:          0  LOAD EVICTING TRANSALTION:          0  LOAD EVICTING LOAD:      568980
L1D AVERAGE MISS LATENCY:       44.0082 cycles  AVERAGE LOAD MISS LATENCY:       43.5116 cycles  AVERAGE LOAD TRANSLATION MISS LATENCY:          -nan cycles
L1D RQ ACCESS:    13547773	FORWARD:           0	MERGED:      2294637	TO_CACHE:   10006723
L1D WQ ACCESS:    13114527	FORWARD:     1246413	MERGED:       276934	TO_CACHE:   12837593

L1I TOTAL     ACCESS:           8626004  HIT:    8625809  MISS:        195  HIT %:    99.9977  MISS %: 0.00226061   MPKI: 0.00354545
L1I LOAD      ACCESS:           8626004  HIT:    8625809  MISS:        195  HIT %:    99.9977  MISS %: 0.00226061   MPKI: 0.00354545
L1I AVERAGE MISS LATENCY:       189.621 cycles
L1I RQ ACCESS:    13444380	FORWARD:           0	MERGED:      4818362	TO_CACHE:    8626018

L2C TOTAL     ACCESS:            632197  HIT:     243906  MISS:     388291  HIT %:    38.5807  MISS %:    61.4193   MPKI: 7.05984  USED:     126014  UNUSED:     262277
L2C LOAD      ACCESS:            569438  HIT:     208586  MISS:     360852  HIT %:    36.6302  MISS %:    63.3698   MPKI: 6.56095  USED:     126001  UNUSED:     243016
L2C RFO       ACCESS:             27570  HIT:        139  MISS:      27431  HIT %:   0.504171  MISS %:    99.4958   MPKI: 0.498745
L2C WRITEBACK ACCESS:             35189  HIT:      35181  MISS:          8  HIT %:    99.9773  MISS %:  0.0227344   MPKI: 0.000145455
L2C PTL1 TRANSLATION ACCESS:          0  HIT:          0  MISS:          0  HIT %:       -nan  MISS %:       -nan   MPKI: 0
L2C PTL2 TRANSLATION ACCESS:          0  HIT:          0  MISS:          0  HIT %:       -nan  MISS %:       -nan   MPKI: 0
L2C PTL3 TRANSLATION ACCESS:          0  HIT:          0  MISS:          0  HIT %:       -nan  MISS %:       -nan   MPKI: 0
L2C PTL4 TRANSLATION ACCESS:          0  HIT:          0  MISS:          0  HIT %:       -nan  MISS %:       -nan   MPKI: 0
L2C PTL5 TRANSLATION ACCESS:          0  HIT:          0  MISS:          0  HIT %:       -nan  MISS %:       -nan   MPKI: 0
L2C TOTAL EVICTIONS:             388291  TRANSLATION EVICTIONS:          0  TRANSLATION EVICTING TRANSALTION:          0  TRANSLATION EVICTING LOAD:          0  LOAD EVICTING TRANSALTION:          0  LOAD EVICTING LOAD:      360812
L2C AVERAGE MISS LATENCY:       44.6744 cycles  AVERAGE LOAD MISS LATENCY:       45.0717 cycles  AVERAGE LOAD TRANSLATION MISS LATENCY:          -nan cycles
L2C RQ ACCESS:      597008	FORWARD:           0	MERGED:            0	TO_CACHE:     597008
L2C WQ ACCESS:       35189	FORWARD:           0	MERGED:            0	TO_CACHE:      35189

LLC TOTAL     ACCESS:            416177  HIT:     353100  MISS:      63077  HIT %:    84.8437  MISS %:    15.1563   MPKI: 1.14685  USED:          0  UNUSED:          0
LLC LOAD      ACCESS:            360852  HIT:     305449  MISS:      55403  HIT %:    84.6466  MISS %:    15.3534   MPKI: 1.00733  USED:          0  UNUSED:          0
LLC RFO       ACCESS:             27431  HIT:      23970  MISS:       3461  HIT %:    87.3829  MISS %:    12.6171   MPKI: 0.0629273
LLC WRITEBACK ACCESS:             27894  HIT:      23681  MISS:       4213  HIT %:    84.8964  MISS %:    15.1036   MPKI: 0.0766
LLC PTL1 TRANSLATION ACCESS:          0  HIT:          0  MISS:          0  HIT %:       -nan  MISS %:       -nan   MPKI: 0
LLC PTL2 TRANSLATION ACCESS:          0  HIT:          0  MISS:          0  HIT %:       -nan  MISS %:       -nan   MPKI: 0
LLC PTL3 TRANSLATION ACCESS:          0  HIT:          0  MISS:          0  HIT %:       -nan  MISS %:       -nan   MPKI: 0
LLC PTL4 TRANSLATION ACCESS:          0  HIT:          0  MISS:          0  HIT %:       -nan  MISS %:       -nan   MPKI: 0
LLC PTL5 TRANSLATION ACCESS:          0  HIT:          0  MISS:          0  HIT %:       -nan  MISS %:       -nan   MPKI: 0
LLC TOTAL EVICTIONS:                  0  TRANSLATION EVICTIONS:          0  TRANSLATION EVICTING TRANSALTION:          0  TRANSLATION EVICTING LOAD:          0  LOAD EVICTING TRANSALTION:          0  LOAD EVICTING LOAD:           0
LLC AVERAGE MISS LATENCY:        90.333 cycles  AVERAGE LOAD MISS LATENCY:       98.1606 cycles  AVERAGE LOAD TRANSLATION MISS LATENCY:          -nan cycles
LLC RQ ACCESS:      388283	FORWARD:           0	MERGED:            0	TO_CACHE:     388283
LLC WQ ACCESS:       27894	FORWARD:           0	MERGED:            0	TO_CACHE:      27894


RAW hits: 10227397
Loads Generated: 23775172
Loads sent to L1D: 13547773
Stores Generated: 13114530
Stores sent to L1D: 13114527
Major fault: 0 Minor fault: 2274
Allocated PAGES: 2274
IRREG DATA L1D ACCESS: 1251307
L2C ACCESSES: 1021326
L2C MISSES: 610739
Total LLC accesses: 784486
Total Irreg accesses: 626458

DRAM Statistics
 CHANNEL 0
 RQ ROW_BUFFER_HIT:      43238  ROW_BUFFER_MISS:      16771
 DBUS_CONGESTED:          1
 WQ ROW_BUFFER_HIT:       1621  ROW_BUFFER_MISS:       2743  FULL:          0

 AVG_CONGESTED_CYCLE: 3

CPU 0 Branch Prediction Accuracy: 98.1782% MPKI: 2.35525 Average ROB Occupancy at Mispredict: 17.6925
Branch types
NOT_BRANCH: 47889171 87.0712%
BRANCH_DIRECT_JUMP: 0 0%
BRANCH_INDIRECT: 1076201 1.95673%
BRANCH_CONDITIONAL: 0 0%
BRANCH_DIRECT_CALL: 132536 0.240975%
BRANCH_INDIRECT_CALL: 2146666 3.90303%
BRANCH_RETURN: 2279197 4.14399%
BRANCH_OTHER: 1475880 2.68342%

DRAM PAGES: 1048576
Allocated PAGES: 2274
