
*** ChampSim Multicore Out-of-Order Simulator ***

Warmup Instructions: 20000000
Simulation Instructions: 20000000
Number of CPUs: 1
LLC sets: 2048
LLC ways: 16
Off-chip DRAM Size: 4096 MB Channels: 1 Width: 64-bit Data Rate: 6400 MT/s
CPU 0 runs ./tracer/pull_u16_k4.xz
.xz
BTB has LRU replacement policy
ITLB has LRU replacement policy
DTLB has LRU replacement policy
STLB has LRU replacement policy
L1I has LRU replacement policy
L1D has LRU replacement policy
L2C has LRU replacement policy
Initialize DRRIP state for LLC
Heartbeat CPU 0 instructions: 1000000 cycles: 350520 heartbeat IPC: 2.8529 cumulative IPC: 2.8529 (Simulation time: 0 hr 0 min 2 sec) 
PIN_registerGraphs(random_u16_k4.sg,1)
Graphh Number of Nodes: 65536
Heartbeat CPU 0 instructions: 2000000 cycles: 690869 heartbeat IPC: 2.93816 cumulative IPC: 2.8949 (Simulation time: 0 hr 0 min 4 sec) 
PIN_updateRegBaseBound( 94611379302608, 94611379564752)
updateCurrDst(105)
updateCurrDst(158)
updateCurrDst(238)
updateCurrDst(389)
updateCurrDst(390)
updateCurrDst(566)
updateCurrDst(609)
updateCurrDst(726)
updateCurrDst(777)
updateCurrDst(845)
updateCurrDst(931)
Heartbeat CPU 0 instructions: 3000001 cycles: 1012246 heartbeat IPC: 3.11161 cumulative IPC: 2.96371 (Simulation time: 0 hr 0 min 6 sec) 
updateCurrDst(962)
updateCurrDst(965)
updateCurrDst(981)
updateCurrDst(1075)
updateCurrDst(1180)
updateCurrDst(1273)
updateCurrDst(1297)
updateCurrDst(1454)
updateCurrDst(1693)
updateCurrDst(1876)
updateCurrDst(1920)
updateCurrDst(1936)
updateCurrDst(1968)
updateCurrDst(2215)
updateCurrDst(2249)
updateCurrDst(2309)
updateCurrDst(2392)
updateCurrDst(2608)
Heartbeat CPU 0 instructions: 4000000 cycles: 1323067 heartbeat IPC: 3.21728 cumulative IPC: 3.02328 (Simulation time: 0 hr 0 min 9 sec) 
updateCurrDst(2715)
updateCurrDst(2761)
updateCurrDst(2889)
updateCurrDst(2995)
updateCurrDst(3019)
updateCurrDst(3086)
updateCurrDst(3150)
updateCurrDst(3255)
updateCurrDst(3294)
updateCurrDst(3373)
updateCurrDst(3494)
updateCurrDst(3579)
updateCurrDst(3595)
updateCurrDst(3635)
updateCurrDst(3701)
updateCurrDst(3705)
updateCurrDst(3716)
updateCurrDst(3755)
updateCurrDst(4027)
updateCurrDst(4208)
updateCurrDst(4227)
updateCurrDst(4319)
updateCurrDst(4328)
updateCurrDst(4338)
updateCurrDst(4349)
updateCurrDst(4391)
Heartbeat CPU 0 instructions: 5000000 cycles: 1633957 heartbeat IPC: 3.21657 cumulative IPC: 3.06006 (Simulation time: 0 hr 0 min 12 sec) 
updateCurrDst(4463)
updateCurrDst(4583)
updateCurrDst(4658)
updateCurrDst(4703)
updateCurrDst(4850)
updateCurrDst(5089)
updateCurrDst(5389)
updateCurrDst(5432)
updateCurrDst(5507)
updateCurrDst(5516)
updateCurrDst(5527)
updateCurrDst(5640)
updateCurrDst(5828)
updateCurrDst(6037)
updateCurrDst(6131)
Heartbeat CPU 0 instructions: 6000002 cycles: 1944428 heartbeat IPC: 3.22092 cumulative IPC: 3.08574 (Simulation time: 0 hr 0 min 15 sec) 
updateCurrDst(6600)
updateCurrDst(6639)
updateCurrDst(6791)
updateCurrDst(7028)
updateCurrDst(7055)
updateCurrDst(7056)
updateCurrDst(7094)
updateCurrDst(7314)
updateCurrDst(7603)
updateCurrDst(7607)
updateCurrDst(7665)
updateCurrDst(7758)
updateCurrDst(7849)
Heartbeat CPU 0 instructions: 7000003 cycles: 2254947 heartbeat IPC: 3.22042 cumulative IPC: 3.10429 (Simulation time: 0 hr 0 min 18 sec) 
updateCurrDst(7878)
updateCurrDst(7927)
updateCurrDst(8047)
updateCurrDst(8174)
updateCurrDst(8183)
updateCurrDst(8203)
updateCurrDst(8277)
updateCurrDst(8302)
updateCurrDst(8335)
updateCurrDst(8491)
updateCurrDst(8498)
updateCurrDst(8534)
updateCurrDst(8537)
updateCurrDst(8543)
updateCurrDst(8967)
updateCurrDst(9021)
updateCurrDst(9109)
updateCurrDst(9146)
updateCurrDst(9167)
updateCurrDst(9199)
updateCurrDst(9294)
Heartbeat CPU 0 instructions: 8000003 cycles: 2565635 heartbeat IPC: 3.21866 cumulative IPC: 3.11814 (Simulation time: 0 hr 0 min 22 sec) 
updateCurrDst(9831)
updateCurrDst(9878)
updateCurrDst(9948)
updateCurrDst(10009)
updateCurrDst(10092)
updateCurrDst(10142)
updateCurrDst(10258)
updateCurrDst(10295)
updateCurrDst(10365)
updateCurrDst(10402)
updateCurrDst(10426)
updateCurrDst(10584)
updateCurrDst(10722)
updateCurrDst(11028)
updateCurrDst(11041)
updateCurrDst(11151)
Heartbeat CPU 0 instructions: 9000002 cycles: 2876292 heartbeat IPC: 3.21898 cumulative IPC: 3.12903 (Simulation time: 0 hr 0 min 25 sec) 
updateCurrDst(11380)
updateCurrDst(11414)
updateCurrDst(11437)
updateCurrDst(11514)
updateCurrDst(11565)
updateCurrDst(11625)
updateCurrDst(11797)
updateCurrDst(11848)
updateCurrDst(11905)
updateCurrDst(12020)
updateCurrDst(12105)
updateCurrDst(12538)
updateCurrDst(12564)
updateCurrDst(12748)
updateCurrDst(12826)
updateCurrDst(12892)
Heartbeat CPU 0 instructions: 10000002 cycles: 3186890 heartbeat IPC: 3.2196 cumulative IPC: 3.13786 (Simulation time: 0 hr 0 min 28 sec) 
updateCurrDst(13366)
updateCurrDst(13446)
updateCurrDst(13481)
updateCurrDst(13613)
updateCurrDst(13661)
updateCurrDst(13687)
updateCurrDst(13744)
updateCurrDst(13880)
updateCurrDst(14130)
updateCurrDst(14196)
updateCurrDst(14207)
updateCurrDst(14210)
updateCurrDst(14411)
updateCurrDst(14455)
updateCurrDst(14652)
Heartbeat CPU 0 instructions: 11000000 cycles: 3497477 heartbeat IPC: 3.2197 cumulative IPC: 3.14512 (Simulation time: 0 hr 0 min 32 sec) 
updateCurrDst(14817)
updateCurrDst(15123)
updateCurrDst(15206)
updateCurrDst(15225)
updateCurrDst(15244)
updateCurrDst(15296)
updateCurrDst(15662)
updateCurrDst(15819)
updateCurrDst(15876)
updateCurrDst(16080)
Heartbeat CPU 0 instructions: 12000001 cycles: 3807926 heartbeat IPC: 3.22114 cumulative IPC: 3.15132 (Simulation time: 0 hr 0 min 35 sec) 
updateCurrDst(16526)
updateCurrDst(16615)
updateCurrDst(16692)
updateCurrDst(16753)
updateCurrDst(16760)
updateCurrDst(16829)
updateCurrDst(16833)
updateCurrDst(16926)
updateCurrDst(16956)
updateCurrDst(16965)
updateCurrDst(17005)
updateCurrDst(17143)
updateCurrDst(17290)
updateCurrDst(17503)
updateCurrDst(17528)
updateCurrDst(17535)
updateCurrDst(17569)
updateCurrDst(17602)
updateCurrDst(18073)
updateCurrDst(18225)
Heartbeat CPU 0 instructions: 13000000 cycles: 4118521 heartbeat IPC: 3.21962 cumulative IPC: 3.15647 (Simulation time: 0 hr 0 min 38 sec) 
updateCurrDst(18314)
updateCurrDst(18394)
updateCurrDst(18460)
updateCurrDst(18549)
updateCurrDst(18925)
updateCurrDst(19194)
updateCurrDst(19363)
updateCurrDst(19436)
updateCurrDst(19533)
updateCurrDst(19562)
updateCurrDst(19687)
updateCurrDst(19778)
updateCurrDst(19785)
updateCurrDst(19983)
Heartbeat CPU 0 instructions: 14000002 cycles: 4429236 heartbeat IPC: 3.21839 cumulative IPC: 3.16082 (Simulation time: 0 hr 0 min 41 sec) 
updateCurrDst(20001)
updateCurrDst(20236)
updateCurrDst(20240)
updateCurrDst(20266)
updateCurrDst(20340)
updateCurrDst(20383)
updateCurrDst(20419)
updateCurrDst(20445)
updateCurrDst(20469)
updateCurrDst(20718)
updateCurrDst(20719)
updateCurrDst(20854)
updateCurrDst(21104)
updateCurrDst(21134)
updateCurrDst(21515)
updateCurrDst(21519)
updateCurrDst(21634)
updateCurrDst(21659)
Heartbeat CPU 0 instructions: 15000002 cycles: 4739961 heartbeat IPC: 3.21828 cumulative IPC: 3.16458 (Simulation time: 0 hr 0 min 44 sec) 
updateCurrDst(22047)
updateCurrDst(22180)
updateCurrDst(22282)
updateCurrDst(22323)
updateCurrDst(22397)
updateCurrDst(22411)
updateCurrDst(22524)
updateCurrDst(22563)
updateCurrDst(22564)
updateCurrDst(22657)
updateCurrDst(22856)
updateCurrDst(22873)
updateCurrDst(22899)
updateCurrDst(22971)
updateCurrDst(22996)
updateCurrDst(23026)
updateCurrDst(23121)
updateCurrDst(23411)
updateCurrDst(23453)
Heartbeat CPU 0 instructions: 16000001 cycles: 5050449 heartbeat IPC: 3.22073 cumulative IPC: 3.16804 (Simulation time: 0 hr 0 min 47 sec) 
updateCurrDst(23511)
updateCurrDst(23798)
updateCurrDst(23810)
updateCurrDst(23865)
updateCurrDst(23889)
updateCurrDst(23922)
updateCurrDst(24015)
updateCurrDst(24614)
updateCurrDst(24672)
updateCurrDst(24974)
Heartbeat CPU 0 instructions: 17000001 cycles: 5361491 heartbeat IPC: 3.215 cumulative IPC: 3.17076 (Simulation time: 0 hr 0 min 50 sec) 
updateCurrDst(25224)
updateCurrDst(25363)
updateCurrDst(25411)
updateCurrDst(25601)
updateCurrDst(25637)
updateCurrDst(25661)
updateCurrDst(25701)
updateCurrDst(25788)
updateCurrDst(25889)
updateCurrDst(25988)
updateCurrDst(26047)
updateCurrDst(26106)
updateCurrDst(26126)
updateCurrDst(26177)
updateCurrDst(26186)
updateCurrDst(26301)
updateCurrDst(26305)
updateCurrDst(26397)
updateCurrDst(26620)
updateCurrDst(26665)
updateCurrDst(26681)
updateCurrDst(26699)
updateCurrDst(26856)
Heartbeat CPU 0 instructions: 18000000 cycles: 5672183 heartbeat IPC: 3.21862 cumulative IPC: 3.17338 (Simulation time: 0 hr 0 min 53 sec) 
updateCurrDst(26961)
updateCurrDst(27144)
updateCurrDst(27441)
updateCurrDst(27535)
updateCurrDst(27536)
updateCurrDst(27570)
updateCurrDst(27708)
updateCurrDst(27713)
updateCurrDst(27926)
updateCurrDst(28163)
updateCurrDst(28166)
updateCurrDst(28376)
updateCurrDst(28468)
updateCurrDst(28535)
updateCurrDst(28575)
updateCurrDst(28583)
updateCurrDst(28586)
updateCurrDst(28661)
Heartbeat CPU 0 instructions: 19000002 cycles: 5982932 heartbeat IPC: 3.21804 cumulative IPC: 3.1757 (Simulation time: 0 hr 0 min 56 sec) 
updateCurrDst(28700)
updateCurrDst(28703)
updateCurrDst(28898)
updateCurrDst(28959)
updateCurrDst(28968)
updateCurrDst(29105)
updateCurrDst(29142)
updateCurrDst(29247)
updateCurrDst(29647)
updateCurrDst(29672)
updateCurrDst(29768)
updateCurrDst(30151)
updateCurrDst(30290)
updateCurrDst(30335)
updateCurrDst(30352)
Heartbeat CPU 0 instructions: 20000000 cycles: 6293772 heartbeat IPC: 3.21708 cumulative IPC: 3.17774 (Simulation time: 0 hr 0 min 59 sec) 

Warmup complete CPU 0 instructions: 20000001 cycles: 6293773 (Simulation time: 0 hr 0 min 59 sec) 

updateCurrDst(30412)
updateCurrDst(30563)
updateCurrDst(30574)
updateCurrDst(30724)
updateCurrDst(30772)
updateCurrDst(30799)
updateCurrDst(30858)
updateCurrDst(30930)
updateCurrDst(30983)
updateCurrDst(31037)
updateCurrDst(31067)
updateCurrDst(31189)
updateCurrDst(31206)
updateCurrDst(31213)
updateCurrDst(31222)
updateCurrDst(31342)
updateCurrDst(31500)
updateCurrDst(31666)
updateCurrDst(31737)
updateCurrDst(31761)
updateCurrDst(31858)
updateCurrDst(31866)
Heartbeat CPU 0 instructions: 21000001 cycles: 9314673 heartbeat IPC: 0.331027 cumulative IPC: 0.331027 (Simulation time: 0 hr 1 min 2 sec) 
updateCurrDst(32358)
updateCurrDst(32405)
updateCurrDst(32455)
updateCurrDst(32532)
updateCurrDst(32644)
updateCurrDst(32668)
updateCurrDst(32755)
updateCurrDst(32800)
updateCurrDst(32868)
updateCurrDst(32893)
updateCurrDst(32910)
updateCurrDst(33122)
updateCurrDst(33202)
updateCurrDst(33395)
updateCurrDst(33482)
updateCurrDst(33484)
updateCurrDst(33720)
Heartbeat CPU 0 instructions: 22000000 cycles: 12348674 heartbeat IPC: 0.329597 cumulative IPC: 0.330311 (Simulation time: 0 hr 1 min 5 sec) 
updateCurrDst(33879)
updateCurrDst(33921)
updateCurrDst(34029)
updateCurrDst(34404)
updateCurrDst(34440)
updateCurrDst(34485)
updateCurrDst(34489)
updateCurrDst(34785)
updateCurrDst(34837)
updateCurrDst(34991)
updateCurrDst(34994)
updateCurrDst(35086)
updateCurrDst(35098)
updateCurrDst(35117)
updateCurrDst(35242)
updateCurrDst(35275)
updateCurrDst(35348)
updateCurrDst(35494)
Heartbeat CPU 0 instructions: 23000000 cycles: 15372303 heartbeat IPC: 0.330728 cumulative IPC: 0.33045 (Simulation time: 0 hr 1 min 9 sec) 
updateCurrDst(35621)
updateCurrDst(35704)
updateCurrDst(35720)
updateCurrDst(35807)
updateCurrDst(35829)
updateCurrDst(35979)
updateCurrDst(36037)
updateCurrDst(36067)
updateCurrDst(36105)
updateCurrDst(36148)
updateCurrDst(36233)
updateCurrDst(36261)
updateCurrDst(36437)
updateCurrDst(36462)
updateCurrDst(36661)
updateCurrDst(36725)
updateCurrDst(36851)
updateCurrDst(36955)
updateCurrDst(36979)
updateCurrDst(37011)
updateCurrDst(37068)
updateCurrDst(37300)
Heartbeat CPU 0 instructions: 24000000 cycles: 18412360 heartbeat IPC: 0.328941 cumulative IPC: 0.330071 (Simulation time: 0 hr 1 min 12 sec) 
updateCurrDst(37361)
updateCurrDst(37503)
updateCurrDst(37504)
updateCurrDst(37542)
updateCurrDst(37610)
updateCurrDst(37701)
updateCurrDst(37818)
updateCurrDst(37888)
updateCurrDst(38004)
updateCurrDst(38025)
updateCurrDst(38252)
updateCurrDst(38261)
updateCurrDst(38263)
updateCurrDst(38267)
updateCurrDst(38316)
updateCurrDst(38334)
updateCurrDst(38437)
updateCurrDst(38547)
updateCurrDst(38655)
updateCurrDst(38688)
updateCurrDst(38774)
updateCurrDst(38788)
updateCurrDst(38823)
updateCurrDst(38934)
updateCurrDst(38938)
Heartbeat CPU 0 instructions: 25000003 cycles: 21450405 heartbeat IPC: 0.32916 cumulative IPC: 0.329889 (Simulation time: 0 hr 1 min 15 sec) 
updateCurrDst(39200)
updateCurrDst(39244)
updateCurrDst(39356)
updateCurrDst(39474)
updateCurrDst(39617)
updateCurrDst(39707)
updateCurrDst(39875)
updateCurrDst(39995)
updateCurrDst(40028)
updateCurrDst(40369)
updateCurrDst(40378)
updateCurrDst(40393)
updateCurrDst(40474)
updateCurrDst(40579)
updateCurrDst(40589)
updateCurrDst(40633)
updateCurrDst(40745)
updateCurrDst(40773)
updateCurrDst(40819)
Heartbeat CPU 0 instructions: 26000001 cycles: 24487275 heartbeat IPC: 0.329286 cumulative IPC: 0.329788 (Simulation time: 0 hr 1 min 18 sec) 
updateCurrDst(40908)
updateCurrDst(40910)
updateCurrDst(41338)
updateCurrDst(41526)
updateCurrDst(41634)
updateCurrDst(41710)
updateCurrDst(41814)
updateCurrDst(42079)
updateCurrDst(42189)
updateCurrDst(42202)
updateCurrDst(42308)
updateCurrDst(42439)
updateCurrDst(42456)
Heartbeat CPU 0 instructions: 27000000 cycles: 27541662 heartbeat IPC: 0.327398 cumulative IPC: 0.329444 (Simulation time: 0 hr 1 min 22 sec) 
updateCurrDst(42740)
updateCurrDst(42862)
updateCurrDst(42922)
updateCurrDst(43393)
updateCurrDst(43403)
updateCurrDst(43404)
updateCurrDst(43410)
updateCurrDst(43570)
updateCurrDst(43610)
updateCurrDst(43624)
updateCurrDst(43734)
updateCurrDst(43967)
updateCurrDst(44003)
updateCurrDst(44061)
updateCurrDst(44063)
updateCurrDst(44113)
Heartbeat CPU 0 instructions: 28000000 cycles: 30586477 heartbeat IPC: 0.328427 cumulative IPC: 0.329317 (Simulation time: 0 hr 1 min 25 sec) 
updateCurrDst(44386)
updateCurrDst(44497)
updateCurrDst(44516)
updateCurrDst(44815)
updateCurrDst(44863)
updateCurrDst(44872)
updateCurrDst(44916)
updateCurrDst(45032)
updateCurrDst(45357)
updateCurrDst(45415)
updateCurrDst(45456)
updateCurrDst(45553)
updateCurrDst(45606)
updateCurrDst(45721)
updateCurrDst(45727)
updateCurrDst(45848)
updateCurrDst(45856)
updateCurrDst(45908)
updateCurrDst(45926)
Heartbeat CPU 0 instructions: 29000000 cycles: 33607742 heartbeat IPC: 0.330987 cumulative IPC: 0.329502 (Simulation time: 0 hr 1 min 28 sec) 
updateCurrDst(46018)
updateCurrDst(46184)
updateCurrDst(46390)
updateCurrDst(46487)
updateCurrDst(46575)
updateCurrDst(46848)
updateCurrDst(46960)
updateCurrDst(46963)
updateCurrDst(46989)
updateCurrDst(47137)
updateCurrDst(47157)
updateCurrDst(47502)
updateCurrDst(47593)
updateCurrDst(47650)
updateCurrDst(47655)
updateCurrDst(47675)
updateCurrDst(47704)
Heartbeat CPU 0 instructions: 30000002 cycles: 36642961 heartbeat IPC: 0.329466 cumulative IPC: 0.329498 (Simulation time: 0 hr 1 min 32 sec) 
updateCurrDst(47824)
updateCurrDst(47865)
updateCurrDst(47869)
updateCurrDst(48044)
updateCurrDst(48184)
updateCurrDst(48491)
updateCurrDst(48757)
updateCurrDst(48923)
updateCurrDst(48926)
updateCurrDst(48971)
updateCurrDst(49138)
updateCurrDst(49439)
Heartbeat CPU 0 instructions: 31000002 cycles: 39674330 heartbeat IPC: 0.329884 cumulative IPC: 0.329533 (Simulation time: 0 hr 1 min 35 sec) 
updateCurrDst(49489)
updateCurrDst(49575)
updateCurrDst(50037)
updateCurrDst(50214)
updateCurrDst(50789)
updateCurrDst(50795)
updateCurrDst(50936)
updateCurrDst(51024)
updateCurrDst(51025)
updateCurrDst(51069)
updateCurrDst(51187)
Heartbeat CPU 0 instructions: 32000000 cycles: 42712425 heartbeat IPC: 0.329153 cumulative IPC: 0.329501 (Simulation time: 0 hr 1 min 38 sec) 
updateCurrDst(51292)
updateCurrDst(51761)
updateCurrDst(52170)
updateCurrDst(52288)
updateCurrDst(52290)
updateCurrDst(52344)
updateCurrDst(52485)
updateCurrDst(52572)
updateCurrDst(52598)
updateCurrDst(52711)
updateCurrDst(52725)
Heartbeat CPU 0 instructions: 33000000 cycles: 45749415 heartbeat IPC: 0.329273 cumulative IPC: 0.329484 (Simulation time: 0 hr 1 min 41 sec) 
updateCurrDst(53070)
updateCurrDst(53254)
updateCurrDst(53265)
updateCurrDst(53289)
updateCurrDst(53492)
updateCurrDst(53519)
updateCurrDst(53580)
updateCurrDst(53606)
updateCurrDst(53637)
updateCurrDst(53767)
updateCurrDst(53895)
updateCurrDst(53912)
updateCurrDst(53928)
updateCurrDst(54047)
updateCurrDst(54103)
updateCurrDst(54272)
updateCurrDst(54281)
updateCurrDst(54469)
updateCurrDst(54549)
updateCurrDst(54576)
updateCurrDst(54696)
Heartbeat CPU 0 instructions: 34000000 cycles: 48777898 heartbeat IPC: 0.330198 cumulative IPC: 0.329535 (Simulation time: 0 hr 1 min 44 sec) 
updateCurrDst(54815)
updateCurrDst(55137)
updateCurrDst(55188)
updateCurrDst(55475)
updateCurrDst(55550)
updateCurrDst(55556)
updateCurrDst(55568)
updateCurrDst(55674)
updateCurrDst(55880)
updateCurrDst(55901)
updateCurrDst(55917)
updateCurrDst(55934)
updateCurrDst(55979)
updateCurrDst(56076)
updateCurrDst(56214)
updateCurrDst(56225)
updateCurrDst(56270)
Heartbeat CPU 0 instructions: 35000003 cycles: 51807174 heartbeat IPC: 0.330113 cumulative IPC: 0.329573 (Simulation time: 0 hr 1 min 48 sec) 
updateCurrDst(56420)
updateCurrDst(56480)
updateCurrDst(56629)
updateCurrDst(56779)
updateCurrDst(56849)
updateCurrDst(56972)
updateCurrDst(57019)
updateCurrDst(57033)
updateCurrDst(57038)
updateCurrDst(57132)
updateCurrDst(57737)
updateCurrDst(57960)
updateCurrDst(57976)
updateCurrDst(58021)
updateCurrDst(58079)
Heartbeat CPU 0 instructions: 36000000 cycles: 54836692 heartbeat IPC: 0.330085 cumulative IPC: 0.329605 (Simulation time: 0 hr 1 min 51 sec) 
updateCurrDst(58468)
updateCurrDst(58587)
updateCurrDst(58618)
updateCurrDst(58765)
updateCurrDst(58790)
updateCurrDst(58814)
updateCurrDst(58893)
updateCurrDst(58901)
updateCurrDst(58956)
updateCurrDst(58987)
updateCurrDst(59023)
updateCurrDst(59131)
updateCurrDst(59381)
updateCurrDst(59422)
updateCurrDst(59579)
updateCurrDst(59697)
updateCurrDst(59818)
Heartbeat CPU 0 instructions: 37000002 cycles: 57865937 heartbeat IPC: 0.330116 cumulative IPC: 0.329635 (Simulation time: 0 hr 1 min 54 sec) 
updateCurrDst(59905)
updateCurrDst(59930)
updateCurrDst(60153)
updateCurrDst(60212)
updateCurrDst(60306)
updateCurrDst(60686)
updateCurrDst(60728)
updateCurrDst(60742)
updateCurrDst(60841)
updateCurrDst(60876)
updateCurrDst(60993)
updateCurrDst(61019)
updateCurrDst(61027)
updateCurrDst(61130)
updateCurrDst(61157)
updateCurrDst(61171)
updateCurrDst(61191)
updateCurrDst(61313)
updateCurrDst(61539)
updateCurrDst(61577)
Heartbeat CPU 0 instructions: 38000000 cycles: 60896539 heartbeat IPC: 0.329967 cumulative IPC: 0.329654 (Simulation time: 0 hr 1 min 58 sec) 
updateCurrDst(61631)
updateCurrDst(61910)
updateCurrDst(61947)
updateCurrDst(61971)
updateCurrDst(62266)
updateCurrDst(62525)
updateCurrDst(62814)
updateCurrDst(62817)
updateCurrDst(62827)
updateCurrDst(62895)
updateCurrDst(62936)
updateCurrDst(63004)
updateCurrDst(63010)
updateCurrDst(63036)
updateCurrDst(63058)
updateCurrDst(63089)
updateCurrDst(63135)
updateCurrDst(63193)
updateCurrDst(63250)
updateCurrDst(63254)
updateCurrDst(63337)
Heartbeat CPU 0 instructions: 39000000 cycles: 63925875 heartbeat IPC: 0.330105 cumulative IPC: 0.329677 (Simulation time: 0 hr 2 min 1 sec) 
updateCurrDst(63499)
updateCurrDst(63528)
updateCurrDst(63568)
updateCurrDst(63576)
updateCurrDst(63598)
updateCurrDst(63700)
updateCurrDst(63888)
updateCurrDst(63910)
updateCurrDst(63972)
updateCurrDst(64030)
updateCurrDst(64100)
updateCurrDst(64230)
updateCurrDst(64232)
updateCurrDst(64337)
updateCurrDst(64582)
updateCurrDst(64659)
updateCurrDst(64780)
updateCurrDst(64983)
*** Reached end of trace for Core: 0 Repeating trace: ./tracer/pull_u16_k4.xzafter: 40000000
Heartbeat CPU 0 instructions: 40000000 cycles: 66954504 heartbeat IPC: 0.330182 cumulative IPC: 0.329703 (Simulation time: 0 hr 2 min 4 sec) 
Finished CPU 0 instructions: 20000000 cycles: 60660732 cumulative IPC: 0.329703 (Simulation time: 0 hr 2 min 4 sec) 

ChampSim completed all CPUs

Region of Interest Statistics

CPU 0 cumulative IPC: 0.329703 instructions: 20000000 cycles: 60660732

Total ROB STALLS:                    7808918
STLB MISS ROB STALLS:                    271
L1D  LOAD MISS ROB STALLS:            254482  Translation MISS ROB STALLS:             0
L2C  LOAD MISS ROB STALLS:             23844  Translation MISS ROB STALLS:             0
LLC  LOAD MISS ROB STALLS:             22818  Translation MISS ROB STALLS:             0

ITLB TOTAL     ACCESS:           2669898  HIT:    2669898  MISS:          0  HIT %:        100  MISS %:          0   MPKI: 0
ITLB LOAD TRANSLATION ACCESS:    2669898  HIT:    2669898  MISS:          0  HIT %:        100  MISS %:          0   MPKI: 0
ITLB AVERAGE MISS LATENCY:          -nan cycles
ITLB RQ ACCESS:     2876962	FORWARD:           0	MERGED:       207065	TO_CACHE:    2669897

DTLB TOTAL     ACCESS:           5895374  HIT:    5871737  MISS:      23637  HIT %:    99.5991  MISS %:   0.400941   MPKI: 1.18185
DTLB LOAD TRANSLATION ACCESS:    5895374  HIT:    5871737  MISS:      23637  HIT %:    99.5991  MISS %:   0.400941   MPKI: 1.18185
DTLB AVERAGE MISS LATENCY:       11.8608 cycles
DTLB RQ ACCESS:     8055703	FORWARD:           0	MERGED:      2160329	TO_CACHE:    5895374

STLB TOTAL     ACCESS:             23637  HIT:      23366  MISS:        271  HIT %:    98.8535  MISS %:    1.14651   MPKI: 0.01355
STLB LOAD TRANSLATION ACCESS:      23637  HIT:      23366  MISS:        271  HIT %:    98.8535  MISS %:    1.14651   MPKI: 0.01355
STLB AVERAGE MISS LATENCY:       249.524 cycles
STLB RQ ACCESS:       23637	FORWARD:           0	MERGED:            0	TO_CACHE:      23637

PSCL5 TOTAL     ACCESS:               271  HIT:        271  MISS:          0  HIT %:        100  MISS %:          0   MPKI: 0
PSCL5 LOAD TRANSLATION ACCESS:        271  HIT:        271  MISS:          0  HIT %:        100  MISS %:          0   MPKI: 0

PSCL4 TOTAL     ACCESS:               271  HIT:        271  MISS:          0  HIT %:        100  MISS %:          0   MPKI: 0
PSCL4 LOAD TRANSLATION ACCESS:        271  HIT:        271  MISS:          0  HIT %:        100  MISS %:          0   MPKI: 0

PSCL3 TOTAL     ACCESS:               271  HIT:        271  MISS:          0  HIT %:        100  MISS %:          0   MPKI: 0
PSCL3 LOAD TRANSLATION ACCESS:        271  HIT:        271  MISS:          0  HIT %:        100  MISS %:          0   MPKI: 0

PSCL2 TOTAL     ACCESS:               271  HIT:        271  MISS:          0  HIT %:        100  MISS %:          0   MPKI: 0
PSCL2 LOAD TRANSLATION ACCESS:        271  HIT:        271  MISS:          0  HIT %:        100  MISS %:          0   MPKI: 0

L1D TOTAL     ACCESS:           8055700  HIT:    7801218  MISS:     254482  HIT %:     96.841  MISS %:    3.15903   MPKI: 12.7241  USED:      62621  UNUSED:     191861
L1D LOAD      ACCESS:           3449496  HIT:    3195014  MISS:     254482  HIT %:    92.6226  MISS %:    7.37737   MPKI: 12.7241  USED:      62621  UNUSED:     191861
L1D RFO       ACCESS:           4606204  HIT:    4606204  MISS:          0  HIT %:        100  MISS %:          0   MPKI: 0
L1D PTL1 TRANSLATION ACCESS:          0  HIT:          0  MISS:          0  HIT %:       -nan  MISS %:       -nan   MPKI: 0
L1D PTL2 TRANSLATION ACCESS:          0  HIT:          0  MISS:          0  HIT %:       -nan  MISS %:       -nan   MPKI: 0
L1D PTL3 TRANSLATION ACCESS:          0  HIT:          0  MISS:          0  HIT %:       -nan  MISS %:       -nan   MPKI: 0
L1D PTL4 TRANSLATION ACCESS:          0  HIT:          0  MISS:          0  HIT %:       -nan  MISS %:       -nan   MPKI: 0
L1D PTL5 TRANSLATION ACCESS:          0  HIT:          0  MISS:          0  HIT %:       -nan  MISS %:       -nan   MPKI: 0
L1D TOTAL EVICTIONS:             254482  TRANSLATION EVICTIONS:          0  TRANSLATION EVICTING TRANSALTION:          0  TRANSLATION EVICTING LOAD:          0  LOAD EVICTING TRANSALTION:          0  LOAD EVICTING LOAD:      254482
L1D AVERAGE MISS LATENCY:       29.6253 cycles  AVERAGE LOAD MISS LATENCY:       29.6253 cycles  AVERAGE LOAD TRANSLATION MISS LATENCY:          -nan cycles
L1D RQ ACCESS:     5082287	FORWARD:           0	MERGED:      1135485	TO_CACHE:    3449499
L1D WQ ACCESS:     4610061	FORWARD:      497303	MERGED:         3857	TO_CACHE:    4606204

L1I TOTAL     ACCESS:           2876963  HIT:    2876963  MISS:          0  HIT %:        100  MISS %:          0   MPKI: 0
L1I LOAD      ACCESS:           2876963  HIT:    2876963  MISS:          0  HIT %:        100  MISS %:          0   MPKI: 0
L1I AVERAGE MISS LATENCY:          -nan cycles
L1I RQ ACCESS:     4579136	FORWARD:           0	MERGED:      1702174	TO_CACHE:    2876962

L2C TOTAL     ACCESS:            256648  HIT:     232804  MISS:      23844  HIT %:    90.7095  MISS %:    9.29055   MPKI: 1.1922  USED:         14  UNUSED:      23830
L2C LOAD      ACCESS:            254482  HIT:     230638  MISS:      23844  HIT %:    90.6304  MISS %:    9.36962   MPKI: 1.1922  USED:          7  UNUSED:      23830
L2C WRITEBACK ACCESS:              2166  HIT:       2166  MISS:          0  HIT %:        100  MISS %:          0   MPKI: 0
L2C PTL1 TRANSLATION ACCESS:          0  HIT:          0  MISS:          0  HIT %:       -nan  MISS %:       -nan   MPKI: 0
L2C PTL2 TRANSLATION ACCESS:          0  HIT:          0  MISS:          0  HIT %:       -nan  MISS %:       -nan   MPKI: 0
L2C PTL3 TRANSLATION ACCESS:          0  HIT:          0  MISS:          0  HIT %:       -nan  MISS %:       -nan   MPKI: 0
L2C PTL4 TRANSLATION ACCESS:          0  HIT:          0  MISS:          0  HIT %:       -nan  MISS %:       -nan   MPKI: 0
L2C PTL5 TRANSLATION ACCESS:          0  HIT:          0  MISS:          0  HIT %:       -nan  MISS %:       -nan   MPKI: 0
L2C TOTAL EVICTIONS:              23844  TRANSLATION EVICTIONS:          0  TRANSLATION EVICTING TRANSALTION:          0  TRANSLATION EVICTING LOAD:          0  LOAD EVICTING TRANSALTION:          0  LOAD EVICTING LOAD:       23837
L2C AVERAGE MISS LATENCY:       156.093 cycles  AVERAGE LOAD MISS LATENCY:       156.093 cycles  AVERAGE LOAD TRANSLATION MISS LATENCY:          -nan cycles
L2C RQ ACCESS:      254484	FORWARD:           0	MERGED:            0	TO_CACHE:     254484
L2C WQ ACCESS:        2166	FORWARD:           0	MERGED:            0	TO_CACHE:       2166

LLC TOTAL     ACCESS:             26036  HIT:       3211  MISS:      22825  HIT %:    12.3329  MISS %:    87.6671   MPKI: 1.14125  USED:          0  UNUSED:          0
LLC LOAD      ACCESS:             23844  HIT:       1026  MISS:      22818  HIT %:    4.30297  MISS %:     95.697   MPKI: 1.1409  USED:          0  UNUSED:          0
LLC WRITEBACK ACCESS:              2192  HIT:       2185  MISS:          7  HIT %:    99.6807  MISS %:   0.319343   MPKI: 0.00035
LLC PTL1 TRANSLATION ACCESS:          0  HIT:          0  MISS:          0  HIT %:       -nan  MISS %:       -nan   MPKI: 0
LLC PTL2 TRANSLATION ACCESS:          0  HIT:          0  MISS:          0  HIT %:       -nan  MISS %:       -nan   MPKI: 0
LLC PTL3 TRANSLATION ACCESS:          0  HIT:          0  MISS:          0  HIT %:       -nan  MISS %:       -nan   MPKI: 0
LLC PTL4 TRANSLATION ACCESS:          0  HIT:          0  MISS:          0  HIT %:       -nan  MISS %:       -nan   MPKI: 0
LLC PTL5 TRANSLATION ACCESS:          0  HIT:          0  MISS:          0  HIT %:       -nan  MISS %:       -nan   MPKI: 0
LLC TOTAL EVICTIONS:                  0  TRANSLATION EVICTIONS:          0  TRANSLATION EVICTING TRANSALTION:          0  TRANSLATION EVICTING LOAD:          0  LOAD EVICTING TRANSALTION:          0  LOAD EVICTING LOAD:           0
LLC AVERAGE MISS LATENCY:       131.722 cycles  AVERAGE LOAD MISS LATENCY:       131.763 cycles  AVERAGE LOAD TRANSLATION MISS LATENCY:          -nan cycles
LLC RQ ACCESS:       23846	FORWARD:           0	MERGED:            0	TO_CACHE:      23846
LLC WQ ACCESS:        2192	FORWARD:           0	MERGED:            0	TO_CACHE:       2192


RAW hits: 3444536
Loads Generated: 8526825
Loads sent to L1D: 5082287
Stores Generated: 4610061
Stores sent to L1D: 4610061
Major fault: 0 Minor fault: 977
Allocated PAGES: 977
IRREG DATA L1D ACCESS: 520646
L2C ACCESSES: 433079
L2C MISSES: 1082

DRAM Statistics
 CHANNEL 0
 RQ ROW_BUFFER_HIT:       8729  ROW_BUFFER_MISS:      14360
 DBUS_CONGESTED:          0
 WQ ROW_BUFFER_HIT:          0  ROW_BUFFER_MISS:       4934  FULL:          0

 AVG_CONGESTED_CYCLE: -

CPU 0 Branch Prediction Accuracy: 98.5914% MPKI: 1.7332 Average ROB Occupancy at Mispredict: 16.2464
Branch types
NOT_BRANCH: 17538684 87.6934%
BRANCH_DIRECT_JUMP: 0 0%
BRANCH_INDIRECT: 311936 1.55968%
BRANCH_CONDITIONAL: 0 0%
BRANCH_DIRECT_CALL: 34668 0.17334%
BRANCH_INDIRECT_CALL: 831874 4.15937%
BRANCH_RETURN: 866539 4.3327%
BRANCH_OTHER: 415937 2.07969%

DRAM PAGES: 1048576
Allocated PAGES: 977
