
*** ChampSim Multicore Out-of-Order Simulator ***

Warmup Instructions: 20000000
Simulation Instructions: 20000000
Number of CPUs: 1
LLC sets: 2048
LLC ways: 16
Off-chip DRAM Size: 4096 MB Channels: 1 Width: 64-bit Data Rate: 6400 MT/s
CPU 0 runs ./tracer/pull_u16_k4.xz
.xz
BTB has LRU replacement policy
ITLB has LRU replacement policy
DTLB has LRU replacement policy
STLB has LRU replacement policy
L1I has LRU replacement policy
L1D has LRU replacement policy
L2C has LRU replacement policy
LLC has LRU replacement policy
Heartbeat CPU 0 instructions: 1000000 cycles: 350520 heartbeat IPC: 2.8529 cumulative IPC: 2.8529 (Simulation time: 0 hr 0 min 3 sec) 
PIN_registerGraphs(random_u16_k4.sg,1)
Graphh Number of Nodes: 65536
Heartbeat CPU 0 instructions: 2000000 cycles: 690869 heartbeat IPC: 2.93816 cumulative IPC: 2.8949 (Simulation time: 0 hr 0 min 5 sec) 
PIN_updateRegBaseBound( 94611379302608, 94611379564752)
updateCurrDst(252)
updateCurrDst(321)
updateCurrDst(408)
updateCurrDst(425)
updateCurrDst(452)
updateCurrDst(737)
updateCurrDst(805)
Heartbeat CPU 0 instructions: 3000001 cycles: 1012246 heartbeat IPC: 3.11161 cumulative IPC: 2.96371 (Simulation time: 0 hr 0 min 7 sec) 
updateCurrDst(1186)
updateCurrDst(1195)
updateCurrDst(1206)
updateCurrDst(1271)
updateCurrDst(1602)
updateCurrDst(1692)
updateCurrDst(1743)
updateCurrDst(1785)
updateCurrDst(1882)
updateCurrDst(1915)
updateCurrDst(1940)
updateCurrDst(2132)
updateCurrDst(2136)
updateCurrDst(2339)
updateCurrDst(2407)
updateCurrDst(2534)
updateCurrDst(2600)
updateCurrDst(2671)
Heartbeat CPU 0 instructions: 4000000 cycles: 1323067 heartbeat IPC: 3.21728 cumulative IPC: 3.02328 (Simulation time: 0 hr 0 min 10 sec) 
updateCurrDst(2957)
updateCurrDst(3042)
updateCurrDst(3264)
updateCurrDst(3379)
updateCurrDst(3506)
updateCurrDst(3532)
updateCurrDst(3622)
updateCurrDst(3700)
updateCurrDst(3704)
updateCurrDst(3848)
updateCurrDst(3962)
updateCurrDst(4099)
updateCurrDst(4171)
updateCurrDst(4330)
Heartbeat CPU 0 instructions: 5000000 cycles: 1633957 heartbeat IPC: 3.21657 cumulative IPC: 3.06006 (Simulation time: 0 hr 0 min 13 sec) 
updateCurrDst(4588)
updateCurrDst(4732)
updateCurrDst(4803)
updateCurrDst(4813)
updateCurrDst(5020)
updateCurrDst(5040)
updateCurrDst(5049)
updateCurrDst(5084)
updateCurrDst(5124)
updateCurrDst(5411)
updateCurrDst(5430)
updateCurrDst(5489)
updateCurrDst(5513)
updateCurrDst(5636)
updateCurrDst(5699)
updateCurrDst(5845)
updateCurrDst(5887)
updateCurrDst(6034)
updateCurrDst(6060)
Heartbeat CPU 0 instructions: 6000002 cycles: 1944428 heartbeat IPC: 3.22092 cumulative IPC: 3.08574 (Simulation time: 0 hr 0 min 16 sec) 
updateCurrDst(6280)
updateCurrDst(6297)
updateCurrDst(6336)
updateCurrDst(6344)
updateCurrDst(6413)
updateCurrDst(6686)
updateCurrDst(6885)
updateCurrDst(7079)
updateCurrDst(7176)
updateCurrDst(7226)
updateCurrDst(7285)
updateCurrDst(7357)
updateCurrDst(7428)
updateCurrDst(7482)
updateCurrDst(7531)
updateCurrDst(7587)
updateCurrDst(7605)
updateCurrDst(7607)
updateCurrDst(7689)
updateCurrDst(7700)
updateCurrDst(7709)
updateCurrDst(7726)
updateCurrDst(7867)
Heartbeat CPU 0 instructions: 7000003 cycles: 2254947 heartbeat IPC: 3.22042 cumulative IPC: 3.10429 (Simulation time: 0 hr 0 min 19 sec) 
updateCurrDst(7932)
updateCurrDst(8078)
updateCurrDst(8083)
updateCurrDst(8495)
updateCurrDst(8647)
updateCurrDst(8686)
updateCurrDst(8835)
updateCurrDst(8853)
updateCurrDst(8877)
updateCurrDst(8997)
updateCurrDst(9038)
updateCurrDst(9351)
updateCurrDst(9385)
updateCurrDst(9387)
updateCurrDst(9428)
updateCurrDst(9442)
updateCurrDst(9482)
updateCurrDst(9483)
updateCurrDst(9563)
updateCurrDst(9592)
Heartbeat CPU 0 instructions: 8000003 cycles: 2565635 heartbeat IPC: 3.21866 cumulative IPC: 3.11814 (Simulation time: 0 hr 0 min 21 sec) 
updateCurrDst(9655)
updateCurrDst(9665)
updateCurrDst(9782)
updateCurrDst(9816)
updateCurrDst(9848)
updateCurrDst(10061)
updateCurrDst(10132)
updateCurrDst(10177)
updateCurrDst(10224)
updateCurrDst(10363)
updateCurrDst(10402)
updateCurrDst(10473)
updateCurrDst(10657)
updateCurrDst(10976)
updateCurrDst(11076)
updateCurrDst(11320)
Heartbeat CPU 0 instructions: 9000002 cycles: 2876292 heartbeat IPC: 3.21898 cumulative IPC: 3.12903 (Simulation time: 0 hr 0 min 24 sec) 
updateCurrDst(11369)
updateCurrDst(11581)
updateCurrDst(11667)
updateCurrDst(11718)
updateCurrDst(12239)
updateCurrDst(12248)
updateCurrDst(12269)
updateCurrDst(12278)
updateCurrDst(12583)
updateCurrDst(12600)
updateCurrDst(12616)
updateCurrDst(12640)
updateCurrDst(12679)
updateCurrDst(12686)
updateCurrDst(12807)
updateCurrDst(12818)
updateCurrDst(12866)
updateCurrDst(13054)
updateCurrDst(13056)
Heartbeat CPU 0 instructions: 10000002 cycles: 3186890 heartbeat IPC: 3.2196 cumulative IPC: 3.13786 (Simulation time: 0 hr 0 min 27 sec) 
updateCurrDst(13092)
updateCurrDst(13181)
updateCurrDst(13603)
updateCurrDst(13738)
updateCurrDst(13750)
updateCurrDst(13762)
updateCurrDst(13833)
updateCurrDst(13938)
updateCurrDst(14138)
updateCurrDst(14239)
updateCurrDst(14511)
updateCurrDst(14533)
updateCurrDst(14555)
updateCurrDst(14673)
updateCurrDst(14737)
Heartbeat CPU 0 instructions: 11000000 cycles: 3497477 heartbeat IPC: 3.2197 cumulative IPC: 3.14512 (Simulation time: 0 hr 0 min 30 sec) 
updateCurrDst(14855)
updateCurrDst(14904)
updateCurrDst(14913)
updateCurrDst(14958)
updateCurrDst(15430)
updateCurrDst(15493)
updateCurrDst(15582)
updateCurrDst(15642)
updateCurrDst(15664)
updateCurrDst(15955)
updateCurrDst(16088)
updateCurrDst(16129)
updateCurrDst(16289)
updateCurrDst(16397)
updateCurrDst(16416)
updateCurrDst(16433)
updateCurrDst(16472)
Heartbeat CPU 0 instructions: 12000001 cycles: 3807926 heartbeat IPC: 3.22114 cumulative IPC: 3.15132 (Simulation time: 0 hr 0 min 33 sec) 
updateCurrDst(16582)
updateCurrDst(16657)
updateCurrDst(16711)
updateCurrDst(16732)
updateCurrDst(16777)
updateCurrDst(16892)
updateCurrDst(16934)
updateCurrDst(16953)
updateCurrDst(16997)
updateCurrDst(17030)
updateCurrDst(17266)
updateCurrDst(17284)
updateCurrDst(17514)
updateCurrDst(17604)
updateCurrDst(17669)
updateCurrDst(17671)
updateCurrDst(17689)
updateCurrDst(17872)
updateCurrDst(17905)
updateCurrDst(17972)
updateCurrDst(18039)
updateCurrDst(18056)
updateCurrDst(18071)
updateCurrDst(18155)
Heartbeat CPU 0 instructions: 13000000 cycles: 4118521 heartbeat IPC: 3.21962 cumulative IPC: 3.15647 (Simulation time: 0 hr 0 min 36 sec) 
updateCurrDst(18273)
updateCurrDst(18312)
updateCurrDst(18319)
updateCurrDst(18614)
updateCurrDst(18772)
updateCurrDst(18803)
updateCurrDst(18805)
updateCurrDst(18879)
updateCurrDst(18882)
updateCurrDst(19079)
updateCurrDst(19121)
updateCurrDst(19141)
updateCurrDst(19351)
updateCurrDst(19383)
updateCurrDst(19553)
updateCurrDst(19579)
updateCurrDst(19664)
updateCurrDst(19709)
updateCurrDst(19875)
Heartbeat CPU 0 instructions: 14000002 cycles: 4429236 heartbeat IPC: 3.21839 cumulative IPC: 3.16082 (Simulation time: 0 hr 0 min 39 sec) 
updateCurrDst(20045)
updateCurrDst(20228)
updateCurrDst(20247)
updateCurrDst(20280)
updateCurrDst(20320)
updateCurrDst(20418)
updateCurrDst(20501)
updateCurrDst(20506)
updateCurrDst(20510)
updateCurrDst(20527)
updateCurrDst(20531)
updateCurrDst(20719)
updateCurrDst(20743)
updateCurrDst(20750)
updateCurrDst(21043)
updateCurrDst(21209)
updateCurrDst(21249)
updateCurrDst(21270)
updateCurrDst(21323)
updateCurrDst(21380)
updateCurrDst(21548)
updateCurrDst(21678)
Heartbeat CPU 0 instructions: 15000002 cycles: 4739961 heartbeat IPC: 3.21828 cumulative IPC: 3.16458 (Simulation time: 0 hr 0 min 42 sec) 
updateCurrDst(21752)
updateCurrDst(21839)
updateCurrDst(22103)
updateCurrDst(22172)
updateCurrDst(22226)
updateCurrDst(22232)
updateCurrDst(22257)
updateCurrDst(22380)
updateCurrDst(22547)
updateCurrDst(22567)
updateCurrDst(22582)
updateCurrDst(22662)
updateCurrDst(22686)
updateCurrDst(23110)
updateCurrDst(23146)
updateCurrDst(23253)
updateCurrDst(23438)
Heartbeat CPU 0 instructions: 16000001 cycles: 5050449 heartbeat IPC: 3.22073 cumulative IPC: 3.16804 (Simulation time: 0 hr 0 min 45 sec) 
updateCurrDst(23458)
updateCurrDst(23491)
updateCurrDst(23761)
updateCurrDst(23984)
updateCurrDst(24007)
updateCurrDst(24365)
updateCurrDst(24412)
updateCurrDst(24544)
updateCurrDst(24735)
updateCurrDst(24737)
updateCurrDst(25131)
updateCurrDst(25186)
Heartbeat CPU 0 instructions: 17000001 cycles: 5361485 heartbeat IPC: 3.21506 cumulative IPC: 3.17076 (Simulation time: 0 hr 0 min 48 sec) 
updateCurrDst(25231)
updateCurrDst(25246)
updateCurrDst(25269)
updateCurrDst(25326)
updateCurrDst(25484)
updateCurrDst(25497)
updateCurrDst(25649)
updateCurrDst(25693)
updateCurrDst(25748)
updateCurrDst(25775)
updateCurrDst(25830)
updateCurrDst(25865)
updateCurrDst(25876)
updateCurrDst(25935)
updateCurrDst(26124)
updateCurrDst(26283)
updateCurrDst(26404)
updateCurrDst(26480)
updateCurrDst(26691)
updateCurrDst(26708)
Heartbeat CPU 0 instructions: 18000000 cycles: 5672171 heartbeat IPC: 3.21868 cumulative IPC: 3.17339 (Simulation time: 0 hr 0 min 51 sec) 
updateCurrDst(27141)
updateCurrDst(27249)
updateCurrDst(27400)
updateCurrDst(27478)
updateCurrDst(27533)
updateCurrDst(27554)
updateCurrDst(27677)
updateCurrDst(27932)
updateCurrDst(28231)
updateCurrDst(28250)
updateCurrDst(28291)
updateCurrDst(28403)
updateCurrDst(28504)
Heartbeat CPU 0 instructions: 19000002 cycles: 5982912 heartbeat IPC: 3.21812 cumulative IPC: 3.17571 (Simulation time: 0 hr 0 min 54 sec) 
updateCurrDst(28991)
updateCurrDst(29098)
updateCurrDst(29233)
updateCurrDst(29359)
updateCurrDst(29490)
updateCurrDst(29814)
updateCurrDst(29979)
updateCurrDst(29998)
updateCurrDst(30099)
updateCurrDst(30202)
Heartbeat CPU 0 instructions: 20000000 cycles: 6293750 heartbeat IPC: 3.2171 cumulative IPC: 3.17776 (Simulation time: 0 hr 0 min 57 sec) 

Warmup complete CPU 0 instructions: 20000001 cycles: 6293751 (Simulation time: 0 hr 0 min 57 sec) 

updateCurrDst(30643)
updateCurrDst(30807)
updateCurrDst(30819)
updateCurrDst(30835)
updateCurrDst(30871)
updateCurrDst(30987)
updateCurrDst(31078)
updateCurrDst(31149)
updateCurrDst(31162)
updateCurrDst(31176)
updateCurrDst(31237)
updateCurrDst(31454)
updateCurrDst(31532)
updateCurrDst(31578)
updateCurrDst(31589)
updateCurrDst(31704)
updateCurrDst(31718)
updateCurrDst(31899)
Heartbeat CPU 0 instructions: 21000001 cycles: 9316245 heartbeat IPC: 0.330853 cumulative IPC: 0.330853 (Simulation time: 0 hr 1 min 0 sec) 
updateCurrDst(32212)
updateCurrDst(32217)
updateCurrDst(32223)
updateCurrDst(32293)
updateCurrDst(32384)
updateCurrDst(32592)
updateCurrDst(32737)
updateCurrDst(32778)
updateCurrDst(32886)
updateCurrDst(32948)
updateCurrDst(33017)
updateCurrDst(33060)
updateCurrDst(33081)
updateCurrDst(33120)
updateCurrDst(33231)
updateCurrDst(33445)
updateCurrDst(33699)
updateCurrDst(33857)
updateCurrDst(33864)
Heartbeat CPU 0 instructions: 22000000 cycles: 12351114 heartbeat IPC: 0.329503 cumulative IPC: 0.330177 (Simulation time: 0 hr 1 min 4 sec) 
updateCurrDst(33910)
updateCurrDst(34088)
updateCurrDst(34109)
updateCurrDst(34128)
updateCurrDst(34133)
updateCurrDst(34168)
updateCurrDst(34179)
updateCurrDst(34211)
updateCurrDst(34347)
updateCurrDst(34463)
updateCurrDst(34595)
updateCurrDst(34633)
updateCurrDst(34662)
updateCurrDst(34664)
updateCurrDst(34843)
updateCurrDst(34965)
updateCurrDst(34996)
updateCurrDst(35030)
updateCurrDst(35199)
updateCurrDst(35327)
updateCurrDst(35344)
updateCurrDst(35473)
updateCurrDst(35569)
updateCurrDst(35581)
Heartbeat CPU 0 instructions: 23000000 cycles: 15375973 heartbeat IPC: 0.330594 cumulative IPC: 0.330316 (Simulation time: 0 hr 1 min 7 sec) 
updateCurrDst(35682)
updateCurrDst(35760)
updateCurrDst(35829)
updateCurrDst(36263)
updateCurrDst(36276)
updateCurrDst(36325)
updateCurrDst(36451)
updateCurrDst(36814)
updateCurrDst(37010)
updateCurrDst(37149)
updateCurrDst(37168)
Heartbeat CPU 0 instructions: 24000000 cycles: 18417691 heartbeat IPC: 0.328762 cumulative IPC: 0.329926 (Simulation time: 0 hr 1 min 10 sec) 
updateCurrDst(37384)
updateCurrDst(37463)
updateCurrDst(37589)
updateCurrDst(37728)
updateCurrDst(37831)
updateCurrDst(37833)
updateCurrDst(37867)
updateCurrDst(37942)
updateCurrDst(37953)
updateCurrDst(38026)
updateCurrDst(38129)
updateCurrDst(38214)
updateCurrDst(38336)
updateCurrDst(38393)
updateCurrDst(38438)
updateCurrDst(38508)
updateCurrDst(38612)
updateCurrDst(38697)
Heartbeat CPU 0 instructions: 25000003 cycles: 21456960 heartbeat IPC: 0.329027 cumulative IPC: 0.329746 (Simulation time: 0 hr 1 min 13 sec) 
updateCurrDst(39238)
updateCurrDst(39255)
updateCurrDst(39445)
updateCurrDst(39446)
updateCurrDst(39628)
updateCurrDst(39651)
updateCurrDst(39788)
updateCurrDst(39850)
updateCurrDst(40098)
updateCurrDst(40130)
updateCurrDst(40256)
updateCurrDst(40291)
updateCurrDst(40295)
updateCurrDst(40311)
updateCurrDst(40359)
updateCurrDst(40430)
updateCurrDst(40506)
updateCurrDst(40708)
updateCurrDst(40790)
Heartbeat CPU 0 instructions: 26000001 cycles: 24492410 heartbeat IPC: 0.32944 cumulative IPC: 0.329695 (Simulation time: 0 hr 1 min 16 sec) 
updateCurrDst(40986)
updateCurrDst(40999)
updateCurrDst(41046)
updateCurrDst(41050)
updateCurrDst(41121)
updateCurrDst(41453)
updateCurrDst(41592)
updateCurrDst(41615)
updateCurrDst(42050)
updateCurrDst(42080)
updateCurrDst(42406)
Heartbeat CPU 0 instructions: 27000000 cycles: 27553858 heartbeat IPC: 0.326642 cumulative IPC: 0.329255 (Simulation time: 0 hr 1 min 20 sec) 
updateCurrDst(42619)
updateCurrDst(42690)
updateCurrDst(42699)
updateCurrDst(42819)
updateCurrDst(42917)
updateCurrDst(43128)
updateCurrDst(43220)
updateCurrDst(43427)
updateCurrDst(43561)
updateCurrDst(43590)
updateCurrDst(43605)
updateCurrDst(43662)
updateCurrDst(43670)
updateCurrDst(43799)
updateCurrDst(43875)
updateCurrDst(43947)
updateCurrDst(43999)
updateCurrDst(44067)
updateCurrDst(44119)
updateCurrDst(44240)
Heartbeat CPU 0 instructions: 28000000 cycles: 30606232 heartbeat IPC: 0.327614 cumulative IPC: 0.329049 (Simulation time: 0 hr 1 min 23 sec) 
updateCurrDst(44559)
updateCurrDst(44567)
updateCurrDst(44715)
updateCurrDst(44787)
updateCurrDst(44867)
updateCurrDst(44945)
updateCurrDst(45201)
updateCurrDst(45317)
updateCurrDst(45446)
updateCurrDst(45541)
updateCurrDst(45581)
Heartbeat CPU 0 instructions: 29000000 cycles: 33632677 heartbeat IPC: 0.330421 cumulative IPC: 0.329201 (Simulation time: 0 hr 1 min 27 sec) 
updateCurrDst(46155)
updateCurrDst(46529)
updateCurrDst(46631)
updateCurrDst(46667)
updateCurrDst(46789)
updateCurrDst(46816)
updateCurrDst(46820)
updateCurrDst(46844)
updateCurrDst(46866)
updateCurrDst(46923)
updateCurrDst(47240)
updateCurrDst(47405)
updateCurrDst(47519)
updateCurrDst(47544)
updateCurrDst(47642)
updateCurrDst(47676)
updateCurrDst(47703)
updateCurrDst(47730)
Heartbeat CPU 0 instructions: 30000002 cycles: 36671424 heartbeat IPC: 0.329084 cumulative IPC: 0.329189 (Simulation time: 0 hr 1 min 31 sec) 
updateCurrDst(47789)
updateCurrDst(47846)
updateCurrDst(47926)
updateCurrDst(48119)
updateCurrDst(48191)
updateCurrDst(48242)
updateCurrDst(48274)
updateCurrDst(48326)
updateCurrDst(48404)
updateCurrDst(48486)
updateCurrDst(48561)
updateCurrDst(48657)
updateCurrDst(48767)
updateCurrDst(48796)
updateCurrDst(48834)
updateCurrDst(48881)
updateCurrDst(48910)
Heartbeat CPU 0 instructions: 31000002 cycles: 39715425 heartbeat IPC: 0.328515 cumulative IPC: 0.329128 (Simulation time: 0 hr 1 min 35 sec) 
updateCurrDst(49808)
updateCurrDst(49902)
updateCurrDst(49906)
updateCurrDst(49952)
updateCurrDst(50141)
updateCurrDst(50534)
updateCurrDst(50587)
updateCurrDst(50682)
updateCurrDst(50720)
updateCurrDst(50739)
updateCurrDst(50779)
updateCurrDst(50827)
updateCurrDst(51043)
Heartbeat CPU 0 instructions: 32000000 cycles: 42752884 heartbeat IPC: 0.329222 cumulative IPC: 0.329136 (Simulation time: 0 hr 1 min 38 sec) 
updateCurrDst(51335)
updateCurrDst(51340)
updateCurrDst(51503)
updateCurrDst(51579)
updateCurrDst(51594)
updateCurrDst(51651)
updateCurrDst(51685)
updateCurrDst(51731)
updateCurrDst(51763)
updateCurrDst(52018)
updateCurrDst(52095)
updateCurrDst(52107)
updateCurrDst(52122)
updateCurrDst(52130)
updateCurrDst(52172)
updateCurrDst(52249)
updateCurrDst(52256)
updateCurrDst(52267)
updateCurrDst(52280)
updateCurrDst(52343)
updateCurrDst(52362)
updateCurrDst(52552)
updateCurrDst(52625)
updateCurrDst(52657)
updateCurrDst(52830)
updateCurrDst(52939)
Heartbeat CPU 0 instructions: 33000000 cycles: 45801770 heartbeat IPC: 0.327989 cumulative IPC: 0.329047 (Simulation time: 0 hr 1 min 41 sec) 
updateCurrDst(53238)
updateCurrDst(53590)
updateCurrDst(53661)
updateCurrDst(53848)
updateCurrDst(54063)
updateCurrDst(54200)
updateCurrDst(54235)
updateCurrDst(54407)
Heartbeat CPU 0 instructions: 34000000 cycles: 48842547 heartbeat IPC: 0.328863 cumulative IPC: 0.329034 (Simulation time: 0 hr 1 min 45 sec) 
updateCurrDst(54834)
updateCurrDst(54886)
updateCurrDst(54977)
updateCurrDst(55021)
updateCurrDst(55070)
updateCurrDst(55073)
updateCurrDst(55264)
updateCurrDst(55326)
updateCurrDst(55490)
updateCurrDst(55684)
updateCurrDst(55707)
updateCurrDst(55858)
updateCurrDst(55900)
updateCurrDst(56042)
updateCurrDst(56393)
Heartbeat CPU 0 instructions: 35000003 cycles: 51872335 heartbeat IPC: 0.330057 cumulative IPC: 0.329102 (Simulation time: 0 hr 1 min 48 sec) 
updateCurrDst(56434)
updateCurrDst(56543)
updateCurrDst(57059)
updateCurrDst(57211)
updateCurrDst(57318)
updateCurrDst(57440)
updateCurrDst(57615)
updateCurrDst(57692)
Heartbeat CPU 0 instructions: 36000000 cycles: 54915730 heartbeat IPC: 0.328579 cumulative IPC: 0.329069 (Simulation time: 0 hr 1 min 51 sec) 
updateCurrDst(58408)
updateCurrDst(58535)
updateCurrDst(58649)
updateCurrDst(58748)
updateCurrDst(58789)
updateCurrDst(58822)
updateCurrDst(58964)
updateCurrDst(59096)
updateCurrDst(59123)
updateCurrDst(59155)
updateCurrDst(59323)
updateCurrDst(59490)
updateCurrDst(59709)
updateCurrDst(59874)
Heartbeat CPU 0 instructions: 37000002 cycles: 57949783 heartbeat IPC: 0.329593 cumulative IPC: 0.3291 (Simulation time: 0 hr 1 min 55 sec) 
updateCurrDst(60090)
updateCurrDst(60253)
updateCurrDst(60298)
updateCurrDst(60334)
updateCurrDst(60570)
updateCurrDst(60648)
updateCurrDst(60690)
updateCurrDst(60921)
updateCurrDst(60967)
updateCurrDst(61176)
updateCurrDst(61257)
updateCurrDst(61269)
updateCurrDst(61329)
updateCurrDst(61479)
updateCurrDst(61490)
updateCurrDst(61523)
Heartbeat CPU 0 instructions: 38000000 cycles: 60981863 heartbeat IPC: 0.329806 cumulative IPC: 0.329139 (Simulation time: 0 hr 1 min 58 sec) 
updateCurrDst(61618)
updateCurrDst(61695)
updateCurrDst(61720)
updateCurrDst(61754)
updateCurrDst(61798)
updateCurrDst(61799)
updateCurrDst(61886)
updateCurrDst(62160)
updateCurrDst(62196)
updateCurrDst(62298)
updateCurrDst(62340)
updateCurrDst(62466)
updateCurrDst(62515)
updateCurrDst(62619)
updateCurrDst(62863)
updateCurrDst(62922)
updateCurrDst(62984)
updateCurrDst(63025)
updateCurrDst(63182)
Heartbeat CPU 0 instructions: 39000000 cycles: 64025155 heartbeat IPC: 0.328592 cumulative IPC: 0.32911 (Simulation time: 0 hr 2 min 1 sec) 
updateCurrDst(63367)
updateCurrDst(63436)
updateCurrDst(63659)
updateCurrDst(63692)
updateCurrDst(63732)
updateCurrDst(63812)
updateCurrDst(63999)
updateCurrDst(64024)
updateCurrDst(64154)
updateCurrDst(64172)
updateCurrDst(64177)
updateCurrDst(64277)
updateCurrDst(64414)
updateCurrDst(64580)
updateCurrDst(64706)
updateCurrDst(64763)
updateCurrDst(64780)
updateCurrDst(64978)
updateCurrDst(65009)
updateCurrDst(65069)
*** Reached end of trace for Core: 0 Repeating trace: ./tracer/pull_u16_k4.xzafter: 40000000
Heartbeat CPU 0 instructions: 40000000 cycles: 67054692 heartbeat IPC: 0.330083 cumulative IPC: 0.329159 (Simulation time: 0 hr 2 min 5 sec) 
Finished CPU 0 instructions: 20000000 cycles: 60760942 cumulative IPC: 0.329159 (Simulation time: 0 hr 2 min 5 sec) 

ChampSim completed all CPUs

Region of Interest Statistics

CPU 0 cumulative IPC: 0.329159 instructions: 20000000 cycles: 60760942

Total ROB STALLS:                    7808626
STLB MISS ROB STALLS:                    271
L1D  LOAD MISS ROB STALLS:            254482  Translation MISS ROB STALLS:             0
L2C  LOAD MISS ROB STALLS:             23844  Translation MISS ROB STALLS:             0
LLC  LOAD MISS ROB STALLS:             22969  Translation MISS ROB STALLS:             0

ITLB TOTAL     ACCESS:           2669898  HIT:    2669898  MISS:          0  HIT %:        100  MISS %:          0   MPKI: 0
ITLB LOAD TRANSLATION ACCESS:    2669898  HIT:    2669898  MISS:          0  HIT %:        100  MISS %:          0   MPKI: 0
ITLB AVERAGE MISS LATENCY:          -nan cycles
ITLB RQ ACCESS:     2876962	FORWARD:           0	MERGED:       207065	TO_CACHE:    2669897

DTLB TOTAL     ACCESS:           5895374  HIT:    5871737  MISS:      23637  HIT %:    99.5991  MISS %:   0.400941   MPKI: 1.18185
DTLB LOAD TRANSLATION ACCESS:    5895374  HIT:    5871737  MISS:      23637  HIT %:    99.5991  MISS %:   0.400941   MPKI: 1.18185
DTLB AVERAGE MISS LATENCY:       11.8608 cycles
DTLB RQ ACCESS:     8055647	FORWARD:           0	MERGED:      2160273	TO_CACHE:    5895374

STLB TOTAL     ACCESS:             23637  HIT:      23366  MISS:        271  HIT %:    98.8535  MISS %:    1.14651   MPKI: 0.01355
STLB LOAD TRANSLATION ACCESS:      23637  HIT:      23366  MISS:        271  HIT %:    98.8535  MISS %:    1.14651   MPKI: 0.01355
STLB AVERAGE MISS LATENCY:       249.524 cycles
STLB RQ ACCESS:       23637	FORWARD:           0	MERGED:            0	TO_CACHE:      23637

PSCL5 TOTAL     ACCESS:               271  HIT:        271  MISS:          0  HIT %:        100  MISS %:          0   MPKI: 0
PSCL5 LOAD TRANSLATION ACCESS:        271  HIT:        271  MISS:          0  HIT %:        100  MISS %:          0   MPKI: 0

PSCL4 TOTAL     ACCESS:               271  HIT:        271  MISS:          0  HIT %:        100  MISS %:          0   MPKI: 0
PSCL4 LOAD TRANSLATION ACCESS:        271  HIT:        271  MISS:          0  HIT %:        100  MISS %:          0   MPKI: 0

PSCL3 TOTAL     ACCESS:               271  HIT:        271  MISS:          0  HIT %:        100  MISS %:          0   MPKI: 0
PSCL3 LOAD TRANSLATION ACCESS:        271  HIT:        271  MISS:          0  HIT %:        100  MISS %:          0   MPKI: 0

PSCL2 TOTAL     ACCESS:               271  HIT:        271  MISS:          0  HIT %:        100  MISS %:          0   MPKI: 0
PSCL2 LOAD TRANSLATION ACCESS:        271  HIT:        271  MISS:          0  HIT %:        100  MISS %:          0   MPKI: 0

L1D TOTAL     ACCESS:           8055644  HIT:    7801162  MISS:     254482  HIT %:    96.8409  MISS %:    3.15905   MPKI: 12.7241  USED:      62621  UNUSED:     191861
L1D LOAD      ACCESS:           3449496  HIT:    3195014  MISS:     254482  HIT %:    92.6226  MISS %:    7.37737   MPKI: 12.7241  USED:      62621  UNUSED:     191861
L1D RFO       ACCESS:           4606148  HIT:    4606148  MISS:          0  HIT %:        100  MISS %:          0   MPKI: 0
L1D PTL1 TRANSLATION ACCESS:          0  HIT:          0  MISS:          0  HIT %:       -nan  MISS %:       -nan   MPKI: 0
L1D PTL2 TRANSLATION ACCESS:          0  HIT:          0  MISS:          0  HIT %:       -nan  MISS %:       -nan   MPKI: 0
L1D PTL3 TRANSLATION ACCESS:          0  HIT:          0  MISS:          0  HIT %:       -nan  MISS %:       -nan   MPKI: 0
L1D PTL4 TRANSLATION ACCESS:          0  HIT:          0  MISS:          0  HIT %:       -nan  MISS %:       -nan   MPKI: 0
L1D PTL5 TRANSLATION ACCESS:          0  HIT:          0  MISS:          0  HIT %:       -nan  MISS %:       -nan   MPKI: 0
L1D TOTAL EVICTIONS:             254482  TRANSLATION EVICTIONS:          0  TRANSLATION EVICTING TRANSALTION:          0  TRANSLATION EVICTING LOAD:          0  LOAD EVICTING TRANSALTION:          0  LOAD EVICTING LOAD:      254482
L1D AVERAGE MISS LATENCY:       30.0225 cycles  AVERAGE LOAD MISS LATENCY:       30.0225 cycles  AVERAGE LOAD TRANSLATION MISS LATENCY:          -nan cycles
L1D RQ ACCESS:     5082287	FORWARD:           0	MERGED:      1135485	TO_CACHE:    3449499
L1D WQ ACCESS:     4610061	FORWARD:      497303	MERGED:         3913	TO_CACHE:    4606148

L1I TOTAL     ACCESS:           2876963  HIT:    2876963  MISS:          0  HIT %:        100  MISS %:          0   MPKI: 0
L1I LOAD      ACCESS:           2876963  HIT:    2876963  MISS:          0  HIT %:        100  MISS %:          0   MPKI: 0
L1I AVERAGE MISS LATENCY:          -nan cycles
L1I RQ ACCESS:     4579136	FORWARD:           0	MERGED:      1702174	TO_CACHE:    2876962

L2C TOTAL     ACCESS:            256648  HIT:     232804  MISS:      23844  HIT %:    90.7095  MISS %:    9.29055   MPKI: 1.1922  USED:         14  UNUSED:      23830
L2C LOAD      ACCESS:            254482  HIT:     230638  MISS:      23844  HIT %:    90.6304  MISS %:    9.36962   MPKI: 1.1922  USED:          7  UNUSED:      23830
L2C WRITEBACK ACCESS:              2166  HIT:       2166  MISS:          0  HIT %:        100  MISS %:          0   MPKI: 0
L2C PTL1 TRANSLATION ACCESS:          0  HIT:          0  MISS:          0  HIT %:       -nan  MISS %:       -nan   MPKI: 0
L2C PTL2 TRANSLATION ACCESS:          0  HIT:          0  MISS:          0  HIT %:       -nan  MISS %:       -nan   MPKI: 0
L2C PTL3 TRANSLATION ACCESS:          0  HIT:          0  MISS:          0  HIT %:       -nan  MISS %:       -nan   MPKI: 0
L2C PTL4 TRANSLATION ACCESS:          0  HIT:          0  MISS:          0  HIT %:       -nan  MISS %:       -nan   MPKI: 0
L2C PTL5 TRANSLATION ACCESS:          0  HIT:          0  MISS:          0  HIT %:       -nan  MISS %:       -nan   MPKI: 0
L2C TOTAL EVICTIONS:              23844  TRANSLATION EVICTIONS:          0  TRANSLATION EVICTING TRANSALTION:          0  TRANSLATION EVICTING LOAD:          0  LOAD EVICTING TRANSALTION:          0  LOAD EVICTING LOAD:       23837
L2C AVERAGE MISS LATENCY:       160.332 cycles  AVERAGE LOAD MISS LATENCY:       160.332 cycles  AVERAGE LOAD TRANSLATION MISS LATENCY:          -nan cycles
L2C RQ ACCESS:      254484	FORWARD:           0	MERGED:            0	TO_CACHE:     254484
L2C WQ ACCESS:        2166	FORWARD:           0	MERGED:            0	TO_CACHE:       2166

LLC TOTAL     ACCESS:             26036  HIT:       3060  MISS:      22976  HIT %:     11.753  MISS %:     88.247   MPKI: 1.1488  USED:       2042  UNUSED:      20934
LLC LOAD      ACCESS:             23844  HIT:        875  MISS:      22969  HIT %:    3.66969  MISS %:    96.3303   MPKI: 1.14845  USED:          3  UNUSED:      13854
LLC WRITEBACK ACCESS:              2192  HIT:       2185  MISS:          7  HIT %:    99.6807  MISS %:   0.319343   MPKI: 0.00035
LLC PTL1 TRANSLATION ACCESS:          0  HIT:          0  MISS:          0  HIT %:       -nan  MISS %:       -nan   MPKI: 0
LLC PTL2 TRANSLATION ACCESS:          0  HIT:          0  MISS:          0  HIT %:       -nan  MISS %:       -nan   MPKI: 0
LLC PTL3 TRANSLATION ACCESS:          0  HIT:          0  MISS:          0  HIT %:       -nan  MISS %:       -nan   MPKI: 0
LLC PTL4 TRANSLATION ACCESS:          0  HIT:          0  MISS:          0  HIT %:       -nan  MISS %:       -nan   MPKI: 0
LLC PTL5 TRANSLATION ACCESS:          0  HIT:          0  MISS:          0  HIT %:       -nan  MISS %:       -nan   MPKI: 0
LLC TOTAL EVICTIONS:              22976  TRANSLATION EVICTIONS:          0  TRANSLATION EVICTING TRANSALTION:          0  TRANSLATION EVICTING LOAD:          0  LOAD EVICTING TRANSALTION:          0  LOAD EVICTING LOAD:       13853
LLC AVERAGE MISS LATENCY:       135.255 cycles  AVERAGE LOAD MISS LATENCY:       135.297 cycles  AVERAGE LOAD TRANSLATION MISS LATENCY:          -nan cycles
LLC RQ ACCESS:       23846	FORWARD:           0	MERGED:            0	TO_CACHE:      23846
LLC WQ ACCESS:        2192	FORWARD:           0	MERGED:            0	TO_CACHE:       2192


RAW hits: 3444536
Loads Generated: 8526825
Loads sent to L1D: 5082287
Stores Generated: 4610061
Stores sent to L1D: 4610061
Major fault: 0 Minor fault: 977
Allocated PAGES: 977
IRREG DATA L1D ACCESS: 520646
L2C ACCESSES: 433079
L2C MISSES: 1082

DRAM Statistics
 CHANNEL 0
 RQ ROW_BUFFER_HIT:       7975  ROW_BUFFER_MISS:      15265
 DBUS_CONGESTED:          0
 WQ ROW_BUFFER_HIT:          0  ROW_BUFFER_MISS:       6113  FULL:          0

 AVG_CONGESTED_CYCLE: -

CPU 0 Branch Prediction Accuracy: 98.5914% MPKI: 1.7332 Average ROB Occupancy at Mispredict: 16.2464
Branch types
NOT_BRANCH: 17538684 87.6934%
BRANCH_DIRECT_JUMP: 0 0%
BRANCH_INDIRECT: 311936 1.55968%
BRANCH_CONDITIONAL: 0 0%
BRANCH_DIRECT_CALL: 34668 0.17334%
BRANCH_INDIRECT_CALL: 831874 4.15937%
BRANCH_RETURN: 866539 4.3327%
BRANCH_OTHER: 415937 2.07969%

DRAM PAGES: 1048576
Allocated PAGES: 977
