
*** ChampSim Multicore Out-of-Order Simulator ***

Warmup Instructions: 20000000
Simulation Instructions: 20000000
Number of CPUs: 1
LLC sets: 2048
LLC ways: 16
Off-chip DRAM Size: 4096 MB Channels: 1 Width: 64-bit Data Rate: 6400 MT/s
CPU 0 runs ./tracer/pull_u16_k4.xz
.xz
BTB has LRU replacement policy
ITLB has LRU replacement policy
DTLB has LRU replacement policy
STLB has LRU replacement policy
L1I has LRU replacement policy
L1D has LRU replacement policy
L2C has LRU replacement policy
Initialize DRRIP state for LLC
Heartbeat CPU 0 instructions: 1000000 cycles: 350520 heartbeat IPC: 2.8529 cumulative IPC: 2.8529 (Simulation time: 0 hr 0 min 2 sec) 
PIN_registerGraphs(random_u16_k4.sg,1)
Graphh Number of Nodes: 65536
Heartbeat CPU 0 instructions: 2000000 cycles: 690869 heartbeat IPC: 2.93816 cumulative IPC: 2.8949 (Simulation time: 0 hr 0 min 5 sec) 
PIN_updateRegBaseBound( 94611379302608, 94611379564752)
updateCurrDst(60)
updateCurrDst(83)
updateCurrDst(326)
updateCurrDst(426)
updateCurrDst(481)
updateCurrDst(554)
updateCurrDst(603)
updateCurrDst(662)
updateCurrDst(777)
Heartbeat CPU 0 instructions: 3000001 cycles: 1012246 heartbeat IPC: 3.11161 cumulative IPC: 2.96371 (Simulation time: 0 hr 0 min 7 sec) 
updateCurrDst(1195)
updateCurrDst(1525)
updateCurrDst(1698)
updateCurrDst(1741)
updateCurrDst(1803)
updateCurrDst(1897)
updateCurrDst(1923)
updateCurrDst(2127)
updateCurrDst(2139)
updateCurrDst(2182)
updateCurrDst(2380)
updateCurrDst(2430)
updateCurrDst(2573)
Heartbeat CPU 0 instructions: 4000000 cycles: 1323067 heartbeat IPC: 3.21728 cumulative IPC: 3.02328 (Simulation time: 0 hr 0 min 11 sec) 
updateCurrDst(2719)
updateCurrDst(2810)
updateCurrDst(2948)
updateCurrDst(2981)
updateCurrDst(2995)
updateCurrDst(3128)
updateCurrDst(3300)
updateCurrDst(3356)
updateCurrDst(3377)
updateCurrDst(3433)
updateCurrDst(3465)
updateCurrDst(3579)
updateCurrDst(3614)
updateCurrDst(3719)
updateCurrDst(3825)
updateCurrDst(3860)
updateCurrDst(3862)
updateCurrDst(3873)
updateCurrDst(4060)
updateCurrDst(4369)
updateCurrDst(4420)
Heartbeat CPU 0 instructions: 5000000 cycles: 1633957 heartbeat IPC: 3.21657 cumulative IPC: 3.06006 (Simulation time: 0 hr 0 min 14 sec) 
updateCurrDst(4472)
updateCurrDst(4530)
updateCurrDst(4552)
updateCurrDst(4767)
updateCurrDst(4771)
updateCurrDst(4993)
updateCurrDst(5083)
updateCurrDst(5119)
updateCurrDst(5207)
updateCurrDst(5232)
updateCurrDst(5291)
updateCurrDst(5307)
updateCurrDst(5448)
updateCurrDst(5498)
updateCurrDst(5611)
updateCurrDst(5634)
updateCurrDst(5685)
updateCurrDst(5742)
updateCurrDst(5760)
Heartbeat CPU 0 instructions: 6000002 cycles: 1944432 heartbeat IPC: 3.22088 cumulative IPC: 3.08574 (Simulation time: 0 hr 0 min 18 sec) 
updateCurrDst(6198)
updateCurrDst(6244)
updateCurrDst(6484)
updateCurrDst(6542)
updateCurrDst(6701)
updateCurrDst(7048)
updateCurrDst(7375)
updateCurrDst(7472)
updateCurrDst(7480)
updateCurrDst(7499)
updateCurrDst(7542)
updateCurrDst(7640)
updateCurrDst(7711)
updateCurrDst(7740)
Heartbeat CPU 0 instructions: 7000003 cycles: 2254952 heartbeat IPC: 3.22041 cumulative IPC: 3.10428 (Simulation time: 0 hr 0 min 21 sec) 
updateCurrDst(7885)
updateCurrDst(7898)
updateCurrDst(7964)
updateCurrDst(7971)
updateCurrDst(8034)
updateCurrDst(8051)
updateCurrDst(8441)
updateCurrDst(8466)
updateCurrDst(8543)
updateCurrDst(8559)
updateCurrDst(8571)
updateCurrDst(8584)
updateCurrDst(8659)
updateCurrDst(8680)
updateCurrDst(8955)
updateCurrDst(8964)
updateCurrDst(8971)
updateCurrDst(9136)
updateCurrDst(9170)
updateCurrDst(9218)
updateCurrDst(9374)
updateCurrDst(9504)
updateCurrDst(9577)
Heartbeat CPU 0 instructions: 8000003 cycles: 2565641 heartbeat IPC: 3.21865 cumulative IPC: 3.11813 (Simulation time: 0 hr 0 min 24 sec) 
updateCurrDst(9624)
updateCurrDst(9667)
updateCurrDst(9733)
updateCurrDst(9786)
updateCurrDst(9819)
updateCurrDst(9938)
updateCurrDst(10161)
updateCurrDst(10216)
updateCurrDst(10291)
updateCurrDst(10380)
updateCurrDst(10814)
updateCurrDst(11069)
updateCurrDst(11238)
Heartbeat CPU 0 instructions: 9000002 cycles: 2876301 heartbeat IPC: 3.21895 cumulative IPC: 3.12902 (Simulation time: 0 hr 0 min 27 sec) 
updateCurrDst(11359)
updateCurrDst(11437)
updateCurrDst(11501)
updateCurrDst(11640)
updateCurrDst(11647)
updateCurrDst(11735)
updateCurrDst(11761)
updateCurrDst(11785)
updateCurrDst(11793)
updateCurrDst(11846)
updateCurrDst(11869)
updateCurrDst(11890)
updateCurrDst(12202)
updateCurrDst(12262)
updateCurrDst(12347)
updateCurrDst(12351)
updateCurrDst(12488)
updateCurrDst(12492)
updateCurrDst(12521)
updateCurrDst(12687)
updateCurrDst(12694)
updateCurrDst(12700)
updateCurrDst(12807)
updateCurrDst(12870)
updateCurrDst(12936)
updateCurrDst(13033)
updateCurrDst(13050)
Heartbeat CPU 0 instructions: 10000002 cycles: 3186899 heartbeat IPC: 3.2196 cumulative IPC: 3.13785 (Simulation time: 0 hr 0 min 30 sec) 
updateCurrDst(13098)
updateCurrDst(13153)
updateCurrDst(13234)
updateCurrDst(13256)
updateCurrDst(13316)
updateCurrDst(13380)
updateCurrDst(13465)
updateCurrDst(13501)
updateCurrDst(13651)
updateCurrDst(13862)
updateCurrDst(13920)
updateCurrDst(14039)
updateCurrDst(14118)
updateCurrDst(14347)
updateCurrDst(14416)
updateCurrDst(14581)
updateCurrDst(14599)
updateCurrDst(14641)
Heartbeat CPU 0 instructions: 11000000 cycles: 3497487 heartbeat IPC: 3.21969 cumulative IPC: 3.14512 (Simulation time: 0 hr 0 min 34 sec) 
updateCurrDst(14843)
updateCurrDst(14959)
updateCurrDst(15026)
updateCurrDst(15097)
updateCurrDst(15188)
updateCurrDst(15298)
updateCurrDst(15368)
updateCurrDst(15436)
updateCurrDst(15718)
updateCurrDst(15780)
updateCurrDst(15899)
updateCurrDst(16011)
updateCurrDst(16211)
updateCurrDst(16319)
updateCurrDst(16501)
updateCurrDst(16507)
updateCurrDst(16510)
Heartbeat CPU 0 instructions: 12000001 cycles: 3807938 heartbeat IPC: 3.22112 cumulative IPC: 3.15131 (Simulation time: 0 hr 0 min 37 sec) 
updateCurrDst(16936)
updateCurrDst(16965)
updateCurrDst(17247)
updateCurrDst(17315)
updateCurrDst(17444)
updateCurrDst(17701)
updateCurrDst(17711)
updateCurrDst(18079)
updateCurrDst(18126)
updateCurrDst(18207)
updateCurrDst(18230)
updateCurrDst(18234)
updateCurrDst(18241)
Heartbeat CPU 0 instructions: 13000000 cycles: 4118536 heartbeat IPC: 3.21959 cumulative IPC: 3.15646 (Simulation time: 0 hr 0 min 40 sec) 
updateCurrDst(18332)
updateCurrDst(18573)
updateCurrDst(18593)
updateCurrDst(18635)
updateCurrDst(18733)
updateCurrDst(18769)
updateCurrDst(19038)
updateCurrDst(19059)
updateCurrDst(19186)
updateCurrDst(19284)
updateCurrDst(19329)
updateCurrDst(19422)
updateCurrDst(19470)
updateCurrDst(19500)
updateCurrDst(19503)
updateCurrDst(19504)
updateCurrDst(19712)
updateCurrDst(19872)
updateCurrDst(19940)
Heartbeat CPU 0 instructions: 14000002 cycles: 4429252 heartbeat IPC: 3.21838 cumulative IPC: 3.1608 (Simulation time: 0 hr 0 min 43 sec) 
updateCurrDst(20150)
updateCurrDst(20341)
updateCurrDst(20401)
updateCurrDst(20584)
updateCurrDst(20784)
updateCurrDst(20808)
updateCurrDst(20930)
updateCurrDst(21031)
updateCurrDst(21216)
Heartbeat CPU 0 instructions: 15000002 cycles: 4739978 heartbeat IPC: 3.21827 cumulative IPC: 3.16457 (Simulation time: 0 hr 0 min 46 sec) 
updateCurrDst(21739)
updateCurrDst(21751)
updateCurrDst(21822)
updateCurrDst(21851)
updateCurrDst(22013)
updateCurrDst(22234)
updateCurrDst(22247)
updateCurrDst(22339)
updateCurrDst(22442)
updateCurrDst(22519)
updateCurrDst(22990)
updateCurrDst(22995)
updateCurrDst(23356)
Heartbeat CPU 0 instructions: 16000001 cycles: 5050469 heartbeat IPC: 3.2207 cumulative IPC: 3.16802 (Simulation time: 0 hr 0 min 49 sec) 
updateCurrDst(23483)
updateCurrDst(23616)
updateCurrDst(23695)
updateCurrDst(23959)
updateCurrDst(23983)
updateCurrDst(24098)
updateCurrDst(24153)
updateCurrDst(24157)
updateCurrDst(24277)
updateCurrDst(24332)
updateCurrDst(24373)
updateCurrDst(24432)
updateCurrDst(24479)
updateCurrDst(24794)
updateCurrDst(24995)
updateCurrDst(25044)
updateCurrDst(25166)
Heartbeat CPU 0 instructions: 17000001 cycles: 5361770 heartbeat IPC: 3.21233 cumulative IPC: 3.17059 (Simulation time: 0 hr 0 min 52 sec) 
updateCurrDst(25368)
updateCurrDst(25468)
updateCurrDst(25869)
updateCurrDst(26047)
updateCurrDst(26082)
updateCurrDst(26117)
updateCurrDst(26126)
updateCurrDst(26185)
updateCurrDst(26265)
updateCurrDst(26334)
updateCurrDst(26356)
updateCurrDst(26393)
updateCurrDst(26469)
updateCurrDst(26671)
Heartbeat CPU 0 instructions: 18000000 cycles: 5672684 heartbeat IPC: 3.21632 cumulative IPC: 3.1731 (Simulation time: 0 hr 0 min 55 sec) 
updateCurrDst(27002)
updateCurrDst(27181)
updateCurrDst(27258)
updateCurrDst(27312)
updateCurrDst(27354)
updateCurrDst(27563)
updateCurrDst(27618)
updateCurrDst(27696)
updateCurrDst(28252)
updateCurrDst(28320)
updateCurrDst(28364)
updateCurrDst(28499)
updateCurrDst(28596)
updateCurrDst(28616)
Heartbeat CPU 0 instructions: 19000002 cycles: 5983712 heartbeat IPC: 3.21515 cumulative IPC: 3.17529 (Simulation time: 0 hr 0 min 58 sec) 
updateCurrDst(28688)
updateCurrDst(28712)
updateCurrDst(28977)
updateCurrDst(29239)
updateCurrDst(29320)
updateCurrDst(29698)
updateCurrDst(29877)
updateCurrDst(29958)
updateCurrDst(30103)
updateCurrDst(30239)
updateCurrDst(30388)
Heartbeat CPU 0 instructions: 20000000 cycles: 6294783 heartbeat IPC: 3.21469 cumulative IPC: 3.17723 (Simulation time: 0 hr 1 min 1 sec) 

Warmup complete CPU 0 instructions: 20000001 cycles: 6294784 (Simulation time: 0 hr 1 min 1 sec) 

updateCurrDst(30409)
updateCurrDst(30581)
updateCurrDst(30735)
updateCurrDst(30788)
updateCurrDst(30982)
updateCurrDst(31101)
updateCurrDst(31140)
updateCurrDst(31368)
updateCurrDst(31444)
updateCurrDst(31841)
updateCurrDst(31924)
updateCurrDst(32023)
updateCurrDst(32024)
updateCurrDst(32040)
updateCurrDst(32116)
updateCurrDst(32138)
Heartbeat CPU 0 instructions: 21000001 cycles: 9244618 heartbeat IPC: 0.339002 cumulative IPC: 0.339002 (Simulation time: 0 hr 1 min 4 sec) 
updateCurrDst(32202)
updateCurrDst(32233)
updateCurrDst(32456)
updateCurrDst(32582)
updateCurrDst(32625)
updateCurrDst(32636)
updateCurrDst(32641)
updateCurrDst(32702)
updateCurrDst(32816)
updateCurrDst(33014)
updateCurrDst(33092)
updateCurrDst(33141)
Heartbeat CPU 0 instructions: 22000000 cycles: 12193541 heartbeat IPC: 0.339107 cumulative IPC: 0.339054 (Simulation time: 0 hr 1 min 8 sec) 
updateCurrDst(33951)
updateCurrDst(34044)
updateCurrDst(34078)
updateCurrDst(34155)
updateCurrDst(34181)
updateCurrDst(34289)
updateCurrDst(34366)
updateCurrDst(34529)
updateCurrDst(34657)
updateCurrDst(34811)
updateCurrDst(35481)
updateCurrDst(35559)
Heartbeat CPU 0 instructions: 23000000 cycles: 15142916 heartbeat IPC: 0.339055 cumulative IPC: 0.339054 (Simulation time: 0 hr 1 min 11 sec) 
updateCurrDst(35655)
updateCurrDst(35712)
updateCurrDst(35722)
updateCurrDst(35750)
updateCurrDst(35854)
updateCurrDst(35971)
updateCurrDst(36082)
updateCurrDst(36098)
updateCurrDst(36227)
updateCurrDst(36332)
updateCurrDst(36355)
updateCurrDst(36889)
updateCurrDst(36939)
updateCurrDst(37063)
updateCurrDst(37166)
updateCurrDst(37303)
updateCurrDst(37320)
updateCurrDst(37329)
Heartbeat CPU 0 instructions: 24000000 cycles: 18091877 heartbeat IPC: 0.339102 cumulative IPC: 0.339067 (Simulation time: 0 hr 1 min 14 sec) 
updateCurrDst(37452)
updateCurrDst(37453)
updateCurrDst(37497)
updateCurrDst(37499)
updateCurrDst(37596)
updateCurrDst(37613)
updateCurrDst(37638)
updateCurrDst(37655)
updateCurrDst(37728)
updateCurrDst(37785)
updateCurrDst(37822)
updateCurrDst(38071)
updateCurrDst(38261)
updateCurrDst(38332)
updateCurrDst(38353)
updateCurrDst(38363)
updateCurrDst(38381)
updateCurrDst(38509)
updateCurrDst(38528)
updateCurrDst(38543)
updateCurrDst(38614)
updateCurrDst(38728)
updateCurrDst(38740)
updateCurrDst(38843)
Heartbeat CPU 0 instructions: 25000003 cycles: 21041500 heartbeat IPC: 0.339027 cumulative IPC: 0.339059 (Simulation time: 0 hr 1 min 17 sec) 
updateCurrDst(39125)
updateCurrDst(39144)
updateCurrDst(39354)
updateCurrDst(39438)
updateCurrDst(39576)
updateCurrDst(39807)
updateCurrDst(39982)
updateCurrDst(40351)
updateCurrDst(40738)
updateCurrDst(40758)
Heartbeat CPU 0 instructions: 26000001 cycles: 23989938 heartbeat IPC: 0.339162 cumulative IPC: 0.339076 (Simulation time: 0 hr 1 min 21 sec) 
updateCurrDst(41050)
updateCurrDst(41110)
updateCurrDst(41260)
updateCurrDst(41380)
updateCurrDst(41426)
updateCurrDst(41496)
updateCurrDst(41513)
updateCurrDst(41599)
updateCurrDst(41914)
updateCurrDst(41919)
updateCurrDst(41953)
updateCurrDst(42157)
updateCurrDst(42252)
Heartbeat CPU 0 instructions: 27000000 cycles: 26940716 heartbeat IPC: 0.338893 cumulative IPC: 0.33905 (Simulation time: 0 hr 1 min 24 sec) 
updateCurrDst(42682)
updateCurrDst(42832)
updateCurrDst(42862)
updateCurrDst(42902)
updateCurrDst(42952)
updateCurrDst(43123)
updateCurrDst(43125)
updateCurrDst(43129)
updateCurrDst(43197)
updateCurrDst(43233)
updateCurrDst(43367)
updateCurrDst(43386)
updateCurrDst(43415)
updateCurrDst(43429)
updateCurrDst(43495)
updateCurrDst(43702)
updateCurrDst(43731)
updateCurrDst(43804)
updateCurrDst(43843)
updateCurrDst(43871)
updateCurrDst(43878)
updateCurrDst(43975)
updateCurrDst(43979)
Heartbeat CPU 0 instructions: 28000000 cycles: 29888879 heartbeat IPC: 0.339194 cumulative IPC: 0.339068 (Simulation time: 0 hr 1 min 27 sec) 
updateCurrDst(44354)
updateCurrDst(44404)
updateCurrDst(44529)
updateCurrDst(44549)
updateCurrDst(44586)
updateCurrDst(44617)
updateCurrDst(44736)
updateCurrDst(44795)
updateCurrDst(44804)
updateCurrDst(44918)
updateCurrDst(45021)
updateCurrDst(45105)
updateCurrDst(45256)
updateCurrDst(45346)
updateCurrDst(45563)
updateCurrDst(45776)
updateCurrDst(45801)
updateCurrDst(45826)
updateCurrDst(45893)
updateCurrDst(45992)
Heartbeat CPU 0 instructions: 29000000 cycles: 32837600 heartbeat IPC: 0.33913 cumulative IPC: 0.339075 (Simulation time: 0 hr 1 min 31 sec) 
updateCurrDst(46109)
updateCurrDst(46238)
updateCurrDst(46254)
updateCurrDst(46280)
updateCurrDst(46368)
updateCurrDst(46539)
updateCurrDst(46660)
updateCurrDst(46857)
updateCurrDst(46921)
updateCurrDst(47290)
Heartbeat CPU 0 instructions: 30000002 cycles: 35785902 heartbeat IPC: 0.339179 cumulative IPC: 0.339085 (Simulation time: 0 hr 1 min 34 sec) 
updateCurrDst(47774)
updateCurrDst(47775)
updateCurrDst(47891)
updateCurrDst(47928)
updateCurrDst(47966)
updateCurrDst(48003)
updateCurrDst(48017)
updateCurrDst(48261)
updateCurrDst(48321)
updateCurrDst(48348)
updateCurrDst(48562)
updateCurrDst(48608)
updateCurrDst(48769)
updateCurrDst(48773)
updateCurrDst(48975)
updateCurrDst(49084)
updateCurrDst(49416)
Heartbeat CPU 0 instructions: 31000002 cycles: 38733752 heartbeat IPC: 0.33923 cumulative IPC: 0.339098 (Simulation time: 0 hr 1 min 37 sec) 
updateCurrDst(49849)
updateCurrDst(50058)
updateCurrDst(50096)
updateCurrDst(50122)
updateCurrDst(50338)
updateCurrDst(50412)
updateCurrDst(50500)
updateCurrDst(50869)
updateCurrDst(50878)
updateCurrDst(50991)
updateCurrDst(51034)
updateCurrDst(51183)
Heartbeat CPU 0 instructions: 32000000 cycles: 41682439 heartbeat IPC: 0.339133 cumulative IPC: 0.339101 (Simulation time: 0 hr 1 min 40 sec) 
updateCurrDst(51524)
updateCurrDst(51621)
updateCurrDst(51638)
updateCurrDst(51672)
updateCurrDst(51931)
updateCurrDst(52061)
updateCurrDst(52176)
updateCurrDst(52245)
updateCurrDst(52250)
updateCurrDst(52297)
updateCurrDst(52313)
updateCurrDst(52410)
updateCurrDst(52450)
updateCurrDst(52457)
updateCurrDst(52562)
updateCurrDst(52604)
updateCurrDst(52617)
updateCurrDst(52666)
updateCurrDst(52796)
updateCurrDst(52937)
updateCurrDst(52940)
Heartbeat CPU 0 instructions: 33000000 cycles: 44627868 heartbeat IPC: 0.339509 cumulative IPC: 0.339133 (Simulation time: 0 hr 1 min 44 sec) 
updateCurrDst(53061)
updateCurrDst(53121)
updateCurrDst(53269)
updateCurrDst(53547)
updateCurrDst(53796)
updateCurrDst(53849)
updateCurrDst(53951)
updateCurrDst(53980)
updateCurrDst(54041)
updateCurrDst(54149)
updateCurrDst(54162)
updateCurrDst(54193)
updateCurrDst(54242)
updateCurrDst(54288)
updateCurrDst(54299)
updateCurrDst(54352)
updateCurrDst(54370)
updateCurrDst(54423)
updateCurrDst(54434)
updateCurrDst(54631)
updateCurrDst(54661)
Heartbeat CPU 0 instructions: 34000000 cycles: 47575768 heartbeat IPC: 0.339225 cumulative IPC: 0.339139 (Simulation time: 0 hr 1 min 47 sec) 
updateCurrDst(54763)
updateCurrDst(54789)
updateCurrDst(54848)
updateCurrDst(54866)
updateCurrDst(55088)
updateCurrDst(55171)
updateCurrDst(55281)
updateCurrDst(55403)
updateCurrDst(55700)
updateCurrDst(55797)
updateCurrDst(56318)
updateCurrDst(56380)
updateCurrDst(56401)
Heartbeat CPU 0 instructions: 35000003 cycles: 50526031 heartbeat IPC: 0.338954 cumulative IPC: 0.339127 (Simulation time: 0 hr 1 min 50 sec) 
updateCurrDst(56485)
updateCurrDst(56738)
updateCurrDst(56829)
updateCurrDst(57097)
updateCurrDst(57253)
updateCurrDst(57341)
updateCurrDst(57377)
updateCurrDst(57392)
updateCurrDst(57425)
updateCurrDst(57427)
updateCurrDst(57475)
updateCurrDst(57764)
updateCurrDst(57779)
updateCurrDst(58051)
updateCurrDst(58083)
updateCurrDst(58103)
updateCurrDst(58126)
Heartbeat CPU 0 instructions: 36000000 cycles: 53475605 heartbeat IPC: 0.339031 cumulative IPC: 0.339121 (Simulation time: 0 hr 1 min 54 sec) 
updateCurrDst(58171)
updateCurrDst(58210)
updateCurrDst(58318)
updateCurrDst(58354)
updateCurrDst(58387)
updateCurrDst(58518)
updateCurrDst(58631)
updateCurrDst(58749)
updateCurrDst(58770)
updateCurrDst(58819)
updateCurrDst(59227)
updateCurrDst(59231)
updateCurrDst(59268)
updateCurrDst(59427)
updateCurrDst(59474)
updateCurrDst(59486)
updateCurrDst(59508)
updateCurrDst(59573)
updateCurrDst(59590)
updateCurrDst(59631)
updateCurrDst(59748)
updateCurrDst(59750)
updateCurrDst(59790)
updateCurrDst(59824)
updateCurrDst(59833)
updateCurrDst(59857)
Heartbeat CPU 0 instructions: 37000002 cycles: 56424308 heartbeat IPC: 0.339133 cumulative IPC: 0.339122 (Simulation time: 0 hr 1 min 57 sec) 
updateCurrDst(60071)
updateCurrDst(60082)
updateCurrDst(60128)
updateCurrDst(60140)
updateCurrDst(60388)
updateCurrDst(60397)
updateCurrDst(60732)
updateCurrDst(60857)
updateCurrDst(60882)
updateCurrDst(60921)
updateCurrDst(61051)
updateCurrDst(61181)
updateCurrDst(61246)
updateCurrDst(61291)
updateCurrDst(61358)
updateCurrDst(61385)
Heartbeat CPU 0 instructions: 38000000 cycles: 59375045 heartbeat IPC: 0.338898 cumulative IPC: 0.339109 (Simulation time: 0 hr 2 min 0 sec) 
updateCurrDst(61681)
updateCurrDst(61907)
updateCurrDst(62042)
updateCurrDst(62110)
updateCurrDst(62226)
updateCurrDst(62235)
updateCurrDst(62358)
updateCurrDst(62454)
updateCurrDst(62682)
updateCurrDst(62702)
updateCurrDst(62769)
updateCurrDst(63076)
updateCurrDst(63111)
updateCurrDst(63260)
updateCurrDst(63264)
updateCurrDst(63312)
Heartbeat CPU 0 instructions: 39000000 cycles: 62323834 heartbeat IPC: 0.339122 cumulative IPC: 0.33911 (Simulation time: 0 hr 2 min 3 sec) 
updateCurrDst(63410)
updateCurrDst(63588)
updateCurrDst(63637)
updateCurrDst(63774)
updateCurrDst(63778)
updateCurrDst(63808)
updateCurrDst(63809)
updateCurrDst(63947)
updateCurrDst(63969)
updateCurrDst(64083)
updateCurrDst(64161)
updateCurrDst(64252)
updateCurrDst(64279)
updateCurrDst(64347)
updateCurrDst(64527)
updateCurrDst(64633)
updateCurrDst(64760)
updateCurrDst(64808)
*** Reached end of trace for Core: 0 Repeating trace: ./tracer/pull_u16_k4.xzafter: 40000000
Heartbeat CPU 0 instructions: 40000000 cycles: 65273487 heartbeat IPC: 0.339023 cumulative IPC: 0.339105 (Simulation time: 0 hr 2 min 6 sec) 
Finished CPU 0 instructions: 20000000 cycles: 58978704 cumulative IPC: 0.339105 (Simulation time: 0 hr 2 min 6 sec) 

ChampSim completed all CPUs

Region of Interest Statistics

CPU 0 cumulative IPC: 0.339105 instructions: 20000000 cycles: 58978704

Total ROB STALLS:                    7828755
STLB MISS ROB STALLS:                    271
L1D  LOAD MISS ROB STALLS:            254482  Translation MISS ROB STALLS:             0
L2C  LOAD MISS ROB STALLS:             23844  Translation MISS ROB STALLS:             0
LLC  LOAD MISS ROB STALLS:             17370  Translation MISS ROB STALLS:             0

ITLB TOTAL     ACCESS:           2669898  HIT:    2669898  MISS:          0  HIT %:        100  MISS %:          0   MPKI: 0
ITLB LOAD TRANSLATION ACCESS:    2669898  HIT:    2669898  MISS:          0  HIT %:        100  MISS %:          0   MPKI: 0
ITLB AVERAGE MISS LATENCY:          -nan cycles
ITLB RQ ACCESS:     2876962	FORWARD:           0	MERGED:       207065	TO_CACHE:    2669897

DTLB TOTAL     ACCESS:           5895374  HIT:    5871737  MISS:      23637  HIT %:    99.5991  MISS %:   0.400941   MPKI: 1.18185
DTLB LOAD TRANSLATION ACCESS:    5895374  HIT:    5871737  MISS:      23637  HIT %:    99.5991  MISS %:   0.400941   MPKI: 1.18185
DTLB AVERAGE MISS LATENCY:       11.8777 cycles
DTLB RQ ACCESS:     8059549	FORWARD:           0	MERGED:      2164175	TO_CACHE:    5895374

STLB TOTAL     ACCESS:             23637  HIT:      23366  MISS:        271  HIT %:    98.8535  MISS %:    1.14651   MPKI: 0.01355
STLB LOAD TRANSLATION ACCESS:      23637  HIT:      23366  MISS:        271  HIT %:    98.8535  MISS %:    1.14651   MPKI: 0.01355
STLB AVERAGE MISS LATENCY:           251 cycles
STLB RQ ACCESS:       23637	FORWARD:           0	MERGED:            0	TO_CACHE:      23637

PSCL5 TOTAL     ACCESS:               271  HIT:        271  MISS:          0  HIT %:        100  MISS %:          0   MPKI: 0
PSCL5 LOAD TRANSLATION ACCESS:        271  HIT:        271  MISS:          0  HIT %:        100  MISS %:          0   MPKI: 0

PSCL4 TOTAL     ACCESS:               271  HIT:        271  MISS:          0  HIT %:        100  MISS %:          0   MPKI: 0
PSCL4 LOAD TRANSLATION ACCESS:        271  HIT:        271  MISS:          0  HIT %:        100  MISS %:          0   MPKI: 0

PSCL3 TOTAL     ACCESS:               271  HIT:        271  MISS:          0  HIT %:        100  MISS %:          0   MPKI: 0
PSCL3 LOAD TRANSLATION ACCESS:        271  HIT:        271  MISS:          0  HIT %:        100  MISS %:          0   MPKI: 0

PSCL2 TOTAL     ACCESS:               271  HIT:        271  MISS:          0  HIT %:        100  MISS %:          0   MPKI: 0
PSCL2 LOAD TRANSLATION ACCESS:        271  HIT:        271  MISS:          0  HIT %:        100  MISS %:          0   MPKI: 0

L1D TOTAL     ACCESS:           8059546  HIT:    7805064  MISS:     254482  HIT %:    96.8425  MISS %:    3.15752   MPKI: 12.7241  USED:      62621  UNUSED:     191861
L1D LOAD      ACCESS:           3449496  HIT:    3195014  MISS:     254482  HIT %:    92.6226  MISS %:    7.37737   MPKI: 12.7241  USED:      62621  UNUSED:     191861
L1D RFO       ACCESS:           4610050  HIT:    4610050  MISS:          0  HIT %:        100  MISS %:          0   MPKI: 0
L1D PTL1 TRANSLATION ACCESS:          0  HIT:          0  MISS:          0  HIT %:       -nan  MISS %:       -nan   MPKI: 0
L1D PTL2 TRANSLATION ACCESS:          0  HIT:          0  MISS:          0  HIT %:       -nan  MISS %:       -nan   MPKI: 0
L1D PTL3 TRANSLATION ACCESS:          0  HIT:          0  MISS:          0  HIT %:       -nan  MISS %:       -nan   MPKI: 0
L1D PTL4 TRANSLATION ACCESS:          0  HIT:          0  MISS:          0  HIT %:       -nan  MISS %:       -nan   MPKI: 0
L1D PTL5 TRANSLATION ACCESS:          0  HIT:          0  MISS:          0  HIT %:       -nan  MISS %:       -nan   MPKI: 0
L1D TOTAL EVICTIONS:             254482  TRANSLATION EVICTIONS:          0  TRANSLATION EVICTING TRANSALTION:          0  TRANSLATION EVICTING LOAD:          0  LOAD EVICTING TRANSALTION:          0  LOAD EVICTING LOAD:      254482
L1D AVERAGE MISS LATENCY:       22.7877 cycles  AVERAGE LOAD MISS LATENCY:       22.7877 cycles  AVERAGE LOAD TRANSLATION MISS LATENCY:          -nan cycles
L1D RQ ACCESS:     5082287	FORWARD:           0	MERGED:      1135485	TO_CACHE:    3449499
L1D WQ ACCESS:     4610061	FORWARD:      497303	MERGED:           11	TO_CACHE:    4610050

L1I TOTAL     ACCESS:           2876963  HIT:    2876963  MISS:          0  HIT %:        100  MISS %:          0   MPKI: 0
L1I LOAD      ACCESS:           2876963  HIT:    2876963  MISS:          0  HIT %:        100  MISS %:          0   MPKI: 0
L1I AVERAGE MISS LATENCY:          -nan cycles
L1I RQ ACCESS:     4579136	FORWARD:           0	MERGED:      1702174	TO_CACHE:    2876962

L2C TOTAL     ACCESS:            256648  HIT:     232804  MISS:      23844  HIT %:    90.7095  MISS %:    9.29055   MPKI: 1.1922  USED:         14  UNUSED:      23830
L2C LOAD      ACCESS:            254482  HIT:     230638  MISS:      23844  HIT %:    90.6304  MISS %:    9.36962   MPKI: 1.1922  USED:          7  UNUSED:      23830
L2C WRITEBACK ACCESS:              2166  HIT:       2166  MISS:          0  HIT %:        100  MISS %:          0   MPKI: 0
L2C PTL1 TRANSLATION ACCESS:          0  HIT:          0  MISS:          0  HIT %:       -nan  MISS %:       -nan   MPKI: 0
L2C PTL2 TRANSLATION ACCESS:          0  HIT:          0  MISS:          0  HIT %:       -nan  MISS %:       -nan   MPKI: 0
L2C PTL3 TRANSLATION ACCESS:          0  HIT:          0  MISS:          0  HIT %:       -nan  MISS %:       -nan   MPKI: 0
L2C PTL4 TRANSLATION ACCESS:          0  HIT:          0  MISS:          0  HIT %:       -nan  MISS %:       -nan   MPKI: 0
L2C PTL5 TRANSLATION ACCESS:          0  HIT:          0  MISS:          0  HIT %:       -nan  MISS %:       -nan   MPKI: 0
L2C TOTAL EVICTIONS:              23844  TRANSLATION EVICTIONS:          0  TRANSLATION EVICTING TRANSALTION:          0  TRANSLATION EVICTING LOAD:          0  LOAD EVICTING TRANSALTION:          0  LOAD EVICTING LOAD:       23837
L2C AVERAGE MISS LATENCY:       83.1161 cycles  AVERAGE LOAD MISS LATENCY:       83.1161 cycles  AVERAGE LOAD TRANSLATION MISS LATENCY:          -nan cycles
L2C RQ ACCESS:      254484	FORWARD:           0	MERGED:            0	TO_CACHE:     254484
L2C WQ ACCESS:        2166	FORWARD:           0	MERGED:            0	TO_CACHE:       2166

LLC TOTAL     ACCESS:             26036  HIT:       8633  MISS:      17403  HIT %:    33.1579  MISS %:    66.8421   MPKI: 0.87015  USED:          0  UNUSED:          0
LLC LOAD      ACCESS:             23844  HIT:       6474  MISS:      17370  HIT %:    27.1515  MISS %:    72.8485   MPKI: 0.8685  USED:          0  UNUSED:          0
LLC WRITEBACK ACCESS:              2192  HIT:       2159  MISS:         33  HIT %:    98.4945  MISS %:    1.50547   MPKI: 0.00165
LLC PTL1 TRANSLATION ACCESS:          0  HIT:          0  MISS:          0  HIT %:       -nan  MISS %:       -nan   MPKI: 0
LLC PTL2 TRANSLATION ACCESS:          0  HIT:          0  MISS:          0  HIT %:       -nan  MISS %:       -nan   MPKI: 0
LLC PTL3 TRANSLATION ACCESS:          0  HIT:          0  MISS:          0  HIT %:       -nan  MISS %:       -nan   MPKI: 0
LLC PTL4 TRANSLATION ACCESS:          0  HIT:          0  MISS:          0  HIT %:       -nan  MISS %:       -nan   MPKI: 0
LLC PTL5 TRANSLATION ACCESS:          0  HIT:          0  MISS:          0  HIT %:       -nan  MISS %:       -nan   MPKI: 0
LLC TOTAL EVICTIONS:                  0  TRANSLATION EVICTIONS:          0  TRANSLATION EVICTING TRANSALTION:          0  TRANSLATION EVICTING LOAD:          0  LOAD EVICTING TRANSALTION:          0  LOAD EVICTING LOAD:           0
LLC AVERAGE MISS LATENCY:       72.7748 cycles  AVERAGE LOAD MISS LATENCY:       72.9131 cycles  AVERAGE LOAD TRANSLATION MISS LATENCY:          -nan cycles
LLC RQ ACCESS:       23846	FORWARD:           0	MERGED:            0	TO_CACHE:      23846
LLC WQ ACCESS:        2192	FORWARD:           0	MERGED:            0	TO_CACHE:       2192


RAW hits: 3444536
Loads Generated: 8526825
Loads sent to L1D: 5082287
Stores Generated: 4610061
Stores sent to L1D: 4610061
Major fault: 0 Minor fault: 977
Allocated PAGES: 977
IRREG DATA L1D ACCESS: 520646
L2C ACCESSES: 433079
L2C MISSES: 1082
Total LLC accesses: 54490
Total Irreg accesses: 1968

DRAM Statistics
 CHANNEL 0
 RQ ROW_BUFFER_HIT:      16864  ROW_BUFFER_MISS:        777
 DBUS_CONGESTED:          0
 WQ ROW_BUFFER_HIT:          0  ROW_BUFFER_MISS:         32  FULL:          0

 AVG_CONGESTED_CYCLE: -

CPU 0 Branch Prediction Accuracy: 98.5914% MPKI: 1.7332 Average ROB Occupancy at Mispredict: 16.2464
Branch types
NOT_BRANCH: 17538684 87.6934%
BRANCH_DIRECT_JUMP: 0 0%
BRANCH_INDIRECT: 311936 1.55968%
BRANCH_CONDITIONAL: 0 0%
BRANCH_DIRECT_CALL: 34668 0.17334%
BRANCH_INDIRECT_CALL: 831874 4.15937%
BRANCH_RETURN: 866539 4.3327%
BRANCH_OTHER: 415937 2.07969%

DRAM PAGES: 1048576
Allocated PAGES: 977
