
*** ChampSim Multicore Out-of-Order Simulator ***

Warmup Instructions: 55000000
Simulation Instructions: 55000000
Number of CPUs: 1
LLC sets: 2048
LLC ways: 16
Off-chip DRAM Size: 4096 MB Channels: 1 Width: 64-bit Data Rate: 6400 MT/s
CPU 0 runs tracer/pull_u18_k2.xz
.xz
BTB has LRU replacement policy
ITLB has LRU replacement policy
DTLB has LRU replacement policy
STLB has LRU replacement policy
L1I has LRU replacement policy
L1D has LRU replacement policy
L2C has LRU replacement policy
LLC has LRU replacement policy
PIN_registerGraphs(random_u18_k2.sg,1)
Graphh Number of Nodes: 262144
Heartbeat CPU 0 instructions: 1000000 cycles: 347953 heartbeat IPC: 2.87395 cumulative IPC: 2.87395 (Simulation time: 0 hr 0 min 6 sec) 
Heartbeat CPU 0 instructions: 2000001 cycles: 681286 heartbeat IPC: 3.00001 cumulative IPC: 2.93563 (Simulation time: 0 hr 0 min 10 sec) 
Heartbeat CPU 0 instructions: 3000000 cycles: 1014554 heartbeat IPC: 3.00059 cumulative IPC: 2.95696 (Simulation time: 0 hr 0 min 13 sec) 
Heartbeat CPU 0 instructions: 4000003 cycles: 1347889 heartbeat IPC: 2.99999 cumulative IPC: 2.96761 (Simulation time: 0 hr 0 min 19 sec) 
Heartbeat CPU 0 instructions: 5000003 cycles: 1681222 heartbeat IPC: 3 cumulative IPC: 2.97403 (Simulation time: 0 hr 0 min 24 sec) 
PIN_updateRegBaseBound( 94507968229584, 94507969278160)
updateCurrDst(48)
updateCurrDst(80)
updateCurrDst(222)
updateCurrDst(342)
updateCurrDst(351)
updateCurrDst(359)
updateCurrDst(891)
updateCurrDst(897)
updateCurrDst(1263)
updateCurrDst(1312)
updateCurrDst(1531)
updateCurrDst(1642)
updateCurrDst(1827)
updateCurrDst(2124)
updateCurrDst(2200)
updateCurrDst(2211)
updateCurrDst(2238)
Heartbeat CPU 0 instructions: 6000001 cycles: 2008692 heartbeat IPC: 3.05371 cumulative IPC: 2.98702 (Simulation time: 0 hr 0 min 32 sec) 
updateCurrDst(2446)
updateCurrDst(2541)
updateCurrDst(2674)
updateCurrDst(2717)
updateCurrDst(2846)
updateCurrDst(3232)
updateCurrDst(3246)
updateCurrDst(3252)
updateCurrDst(3327)
updateCurrDst(3338)
updateCurrDst(3341)
updateCurrDst(3342)
updateCurrDst(3414)
updateCurrDst(3605)
updateCurrDst(3955)
updateCurrDst(3956)
updateCurrDst(4206)
updateCurrDst(4215)
updateCurrDst(4226)
updateCurrDst(4232)
updateCurrDst(4378)
updateCurrDst(4397)
updateCurrDst(4400)
updateCurrDst(4446)
updateCurrDst(4671)
updateCurrDst(4847)
Heartbeat CPU 0 instructions: 7000003 cycles: 2336527 heartbeat IPC: 3.05032 cumulative IPC: 2.9959 (Simulation time: 0 hr 0 min 41 sec) 
updateCurrDst(4991)
updateCurrDst(5015)
updateCurrDst(5072)
updateCurrDst(5212)
updateCurrDst(5231)
updateCurrDst(5531)
updateCurrDst(5553)
updateCurrDst(5607)
updateCurrDst(5701)
updateCurrDst(5733)
updateCurrDst(5740)
updateCurrDst(5793)
updateCurrDst(5803)
updateCurrDst(5804)
updateCurrDst(5824)
updateCurrDst(5921)
updateCurrDst(6269)
updateCurrDst(6501)
updateCurrDst(6539)
updateCurrDst(6565)
updateCurrDst(6672)
updateCurrDst(6759)
updateCurrDst(6770)
updateCurrDst(6790)
updateCurrDst(6929)
updateCurrDst(7063)
updateCurrDst(7082)
updateCurrDst(7161)
updateCurrDst(7178)
updateCurrDst(7342)
updateCurrDst(7446)
updateCurrDst(7480)
updateCurrDst(7537)
Heartbeat CPU 0 instructions: 8000002 cycles: 2664207 heartbeat IPC: 3.05175 cumulative IPC: 3.00277 (Simulation time: 0 hr 0 min 47 sec) 
updateCurrDst(7724)
updateCurrDst(7732)
updateCurrDst(7740)
updateCurrDst(7822)
updateCurrDst(7826)
updateCurrDst(7858)
updateCurrDst(7946)
updateCurrDst(8035)
updateCurrDst(8265)
updateCurrDst(8266)
updateCurrDst(8334)
updateCurrDst(8386)
updateCurrDst(8390)
updateCurrDst(8591)
updateCurrDst(8763)
updateCurrDst(8817)
updateCurrDst(9416)
updateCurrDst(9419)
updateCurrDst(9462)
updateCurrDst(9547)
updateCurrDst(9660)
updateCurrDst(9673)
updateCurrDst(9682)
updateCurrDst(9688)
updateCurrDst(9747)
updateCurrDst(9753)
updateCurrDst(9918)
updateCurrDst(10006)
Heartbeat CPU 0 instructions: 9000001 cycles: 2991988 heartbeat IPC: 3.05081 cumulative IPC: 3.00803 (Simulation time: 0 hr 0 min 55 sec) 
updateCurrDst(10330)
updateCurrDst(10407)
updateCurrDst(10461)
updateCurrDst(10678)
updateCurrDst(10706)
updateCurrDst(11043)
updateCurrDst(11273)
updateCurrDst(11452)
updateCurrDst(11552)
updateCurrDst(11874)
updateCurrDst(11961)
updateCurrDst(12278)
updateCurrDst(12291)
updateCurrDst(12399)
updateCurrDst(12473)
updateCurrDst(12521)
updateCurrDst(12619)
Heartbeat CPU 0 instructions: 10000001 cycles: 3319829 heartbeat IPC: 3.05026 cumulative IPC: 3.0122 (Simulation time: 0 hr 1 min 2 sec) 
updateCurrDst(12754)
updateCurrDst(12930)
updateCurrDst(13017)
updateCurrDst(13119)
updateCurrDst(13308)
updateCurrDst(13344)
updateCurrDst(13524)
updateCurrDst(13557)
updateCurrDst(13632)
updateCurrDst(13729)
updateCurrDst(13875)
updateCurrDst(14069)
updateCurrDst(14086)
updateCurrDst(14290)
updateCurrDst(14360)
updateCurrDst(14361)
updateCurrDst(14379)
updateCurrDst(14663)
updateCurrDst(14697)
updateCurrDst(14699)
updateCurrDst(14909)
updateCurrDst(15044)
updateCurrDst(15054)
updateCurrDst(15164)
Heartbeat CPU 0 instructions: 11000000 cycles: 3647871 heartbeat IPC: 3.04839 cumulative IPC: 3.01546 (Simulation time: 0 hr 1 min 12 sec) 
updateCurrDst(15496)
updateCurrDst(15631)
updateCurrDst(15791)
updateCurrDst(15792)
updateCurrDst(15933)
updateCurrDst(15965)
updateCurrDst(15995)
updateCurrDst(16187)
updateCurrDst(16205)
updateCurrDst(16272)
updateCurrDst(16283)
updateCurrDst(16306)
updateCurrDst(16496)
updateCurrDst(16632)
updateCurrDst(16651)
updateCurrDst(16732)
updateCurrDst(16916)
updateCurrDst(16937)
updateCurrDst(17395)
updateCurrDst(17410)
updateCurrDst(17474)
updateCurrDst(17492)
updateCurrDst(17639)
updateCurrDst(17707)
updateCurrDst(17866)
updateCurrDst(17879)
updateCurrDst(17897)
Heartbeat CPU 0 instructions: 12000000 cycles: 3975668 heartbeat IPC: 3.05067 cumulative IPC: 3.01836 (Simulation time: 0 hr 1 min 22 sec) 
updateCurrDst(18017)
updateCurrDst(18092)
updateCurrDst(18126)
updateCurrDst(18146)
updateCurrDst(18162)
updateCurrDst(18202)
updateCurrDst(18295)
updateCurrDst(18357)
updateCurrDst(18438)
updateCurrDst(18450)
updateCurrDst(18621)
updateCurrDst(18686)
updateCurrDst(18775)
updateCurrDst(18841)
updateCurrDst(18855)
updateCurrDst(19040)
updateCurrDst(19251)
updateCurrDst(19254)
updateCurrDst(19255)
updateCurrDst(19281)
updateCurrDst(19294)
updateCurrDst(19303)
updateCurrDst(19366)
updateCurrDst(19430)
updateCurrDst(19632)
updateCurrDst(19776)
updateCurrDst(19841)
updateCurrDst(19851)
updateCurrDst(19854)
updateCurrDst(19928)
updateCurrDst(19952)
updateCurrDst(20095)
updateCurrDst(20108)
updateCurrDst(20200)
updateCurrDst(20354)
Heartbeat CPU 0 instructions: 13000001 cycles: 4303395 heartbeat IPC: 3.05132 cumulative IPC: 3.02087 (Simulation time: 0 hr 1 min 32 sec) 
updateCurrDst(20577)
updateCurrDst(20618)
updateCurrDst(20779)
updateCurrDst(21123)
updateCurrDst(21651)
updateCurrDst(21709)
updateCurrDst(21741)
updateCurrDst(22024)
updateCurrDst(22207)
updateCurrDst(22276)
updateCurrDst(22353)
updateCurrDst(22568)
updateCurrDst(22605)
updateCurrDst(22621)
updateCurrDst(22715)
updateCurrDst(22719)
updateCurrDst(22771)
updateCurrDst(22846)
updateCurrDst(22902)
updateCurrDst(22949)
Heartbeat CPU 0 instructions: 14000002 cycles: 4630967 heartbeat IPC: 3.05277 cumulative IPC: 3.02313 (Simulation time: 0 hr 1 min 39 sec) 
updateCurrDst(23229)
updateCurrDst(23260)
updateCurrDst(23420)
updateCurrDst(23464)
updateCurrDst(23506)
updateCurrDst(23729)
updateCurrDst(23841)
updateCurrDst(23891)
updateCurrDst(23927)
updateCurrDst(24005)
updateCurrDst(24044)
updateCurrDst(24340)
updateCurrDst(24408)
updateCurrDst(24413)
updateCurrDst(24491)
updateCurrDst(24684)
updateCurrDst(24704)
updateCurrDst(24728)
updateCurrDst(24900)
updateCurrDst(25246)
updateCurrDst(25293)
updateCurrDst(25352)
updateCurrDst(25434)
updateCurrDst(25505)
Heartbeat CPU 0 instructions: 15000001 cycles: 4958481 heartbeat IPC: 3.0533 cumulative IPC: 3.02512 (Simulation time: 0 hr 1 min 48 sec) 
updateCurrDst(25709)
updateCurrDst(25858)
updateCurrDst(25878)
updateCurrDst(25983)
updateCurrDst(26044)
updateCurrDst(26140)
updateCurrDst(26589)
updateCurrDst(26701)
updateCurrDst(26751)
updateCurrDst(26840)
updateCurrDst(26914)
updateCurrDst(26960)
updateCurrDst(26961)
updateCurrDst(27030)
updateCurrDst(27114)
updateCurrDst(27178)
updateCurrDst(27209)
updateCurrDst(27713)
updateCurrDst(27744)
updateCurrDst(27764)
updateCurrDst(27866)
updateCurrDst(27920)
updateCurrDst(28033)
updateCurrDst(28161)
updateCurrDst(28200)
updateCurrDst(28264)
Heartbeat CPU 0 instructions: 16000000 cycles: 5286463 heartbeat IPC: 3.04894 cumulative IPC: 3.0266 (Simulation time: 0 hr 1 min 55 sec) 
updateCurrDst(28517)
updateCurrDst(28700)
updateCurrDst(28797)
updateCurrDst(28819)
updateCurrDst(29197)
updateCurrDst(29246)
updateCurrDst(29401)
updateCurrDst(29501)
updateCurrDst(29580)
updateCurrDst(29689)
updateCurrDst(29828)
updateCurrDst(29878)
updateCurrDst(30084)
updateCurrDst(30189)
updateCurrDst(30215)
updateCurrDst(30232)
updateCurrDst(30245)
updateCurrDst(30329)
updateCurrDst(30338)
updateCurrDst(30347)
updateCurrDst(30381)
updateCurrDst(30389)
updateCurrDst(30397)
updateCurrDst(30612)
updateCurrDst(30631)
updateCurrDst(30643)
updateCurrDst(30788)
Heartbeat CPU 0 instructions: 17000000 cycles: 5614040 heartbeat IPC: 3.05272 cumulative IPC: 3.02812 (Simulation time: 0 hr 2 min 3 sec) 
updateCurrDst(30899)
updateCurrDst(30919)
updateCurrDst(30964)
updateCurrDst(31051)
updateCurrDst(31059)
updateCurrDst(31069)
updateCurrDst(31115)
updateCurrDst(31127)
updateCurrDst(31137)
updateCurrDst(31167)
updateCurrDst(31454)
updateCurrDst(31567)
updateCurrDst(31635)
updateCurrDst(31747)
updateCurrDst(31944)
updateCurrDst(32090)
updateCurrDst(32296)
updateCurrDst(32451)
updateCurrDst(32741)
updateCurrDst(32781)
updateCurrDst(32854)
updateCurrDst(32873)
updateCurrDst(32916)
updateCurrDst(33020)
updateCurrDst(33078)
updateCurrDst(33110)
updateCurrDst(33193)
updateCurrDst(33479)
Heartbeat CPU 0 instructions: 18000001 cycles: 5941583 heartbeat IPC: 3.05304 cumulative IPC: 3.0295 (Simulation time: 0 hr 2 min 10 sec) 
updateCurrDst(33549)
updateCurrDst(33711)
updateCurrDst(33733)
updateCurrDst(33740)
updateCurrDst(33759)
updateCurrDst(33973)
updateCurrDst(34091)
updateCurrDst(34131)
updateCurrDst(34196)
updateCurrDst(34380)
updateCurrDst(34460)
updateCurrDst(34550)
updateCurrDst(34583)
updateCurrDst(34608)
updateCurrDst(34818)
updateCurrDst(34828)
updateCurrDst(34850)
updateCurrDst(34996)
updateCurrDst(34998)
updateCurrDst(35004)
updateCurrDst(35103)
updateCurrDst(35357)
updateCurrDst(35411)
updateCurrDst(35478)
updateCurrDst(35485)
updateCurrDst(35489)
updateCurrDst(35502)
updateCurrDst(35733)
updateCurrDst(35773)
updateCurrDst(35969)
Heartbeat CPU 0 instructions: 19000001 cycles: 6269406 heartbeat IPC: 3.05043 cumulative IPC: 3.03059 (Simulation time: 0 hr 2 min 17 sec) 
updateCurrDst(36352)
updateCurrDst(36402)
updateCurrDst(36561)
updateCurrDst(36589)
updateCurrDst(36609)
updateCurrDst(36683)
updateCurrDst(36776)
updateCurrDst(36889)
updateCurrDst(36998)
updateCurrDst(37212)
updateCurrDst(37606)
updateCurrDst(37665)
updateCurrDst(37793)
updateCurrDst(38174)
updateCurrDst(38192)
updateCurrDst(38293)
updateCurrDst(38399)
updateCurrDst(38443)
updateCurrDst(38504)
updateCurrDst(38515)
updateCurrDst(38565)
Heartbeat CPU 0 instructions: 20000000 cycles: 6597078 heartbeat IPC: 3.05183 cumulative IPC: 3.03165 (Simulation time: 0 hr 2 min 23 sec) 
updateCurrDst(38793)
updateCurrDst(38933)
updateCurrDst(38967)
updateCurrDst(38998)
updateCurrDst(39004)
updateCurrDst(39057)
updateCurrDst(39073)
updateCurrDst(39127)
updateCurrDst(39187)
updateCurrDst(39240)
updateCurrDst(39285)
updateCurrDst(39422)
updateCurrDst(39492)
updateCurrDst(39507)
updateCurrDst(39530)
updateCurrDst(39578)
updateCurrDst(39593)
updateCurrDst(39644)
updateCurrDst(39744)
updateCurrDst(39780)
updateCurrDst(39885)
updateCurrDst(40263)
updateCurrDst(40724)
updateCurrDst(40750)
updateCurrDst(40866)
updateCurrDst(41032)
updateCurrDst(41040)
updateCurrDst(41052)
updateCurrDst(41074)
updateCurrDst(41156)
Heartbeat CPU 0 instructions: 21000000 cycles: 6924706 heartbeat IPC: 3.05224 cumulative IPC: 3.03262 (Simulation time: 0 hr 2 min 29 sec) 
updateCurrDst(41318)
updateCurrDst(41370)
updateCurrDst(41490)
updateCurrDst(41540)
updateCurrDst(41589)
updateCurrDst(41757)
updateCurrDst(41856)
updateCurrDst(41950)
updateCurrDst(42031)
updateCurrDst(42136)
updateCurrDst(42156)
updateCurrDst(42249)
updateCurrDst(42354)
updateCurrDst(42402)
updateCurrDst(42467)
updateCurrDst(42573)
updateCurrDst(42726)
updateCurrDst(43077)
updateCurrDst(43116)
updateCurrDst(43239)
updateCurrDst(43242)
updateCurrDst(43270)
updateCurrDst(43334)
updateCurrDst(43423)
updateCurrDst(43430)
updateCurrDst(43771)
updateCurrDst(43807)
Heartbeat CPU 0 instructions: 22000000 cycles: 7252561 heartbeat IPC: 3.05013 cumulative IPC: 3.03341 (Simulation time: 0 hr 2 min 35 sec) 
updateCurrDst(43977)
updateCurrDst(44072)
updateCurrDst(44281)
updateCurrDst(44306)
updateCurrDst(44330)
updateCurrDst(44369)
updateCurrDst(44383)
updateCurrDst(44461)
updateCurrDst(44704)
updateCurrDst(44768)
updateCurrDst(44830)
updateCurrDst(44902)
updateCurrDst(44915)
updateCurrDst(44997)
updateCurrDst(45311)
updateCurrDst(45328)
updateCurrDst(45331)
updateCurrDst(45462)
updateCurrDst(45513)
updateCurrDst(45582)
updateCurrDst(45688)
updateCurrDst(45729)
updateCurrDst(45867)
updateCurrDst(45929)
updateCurrDst(46026)
updateCurrDst(46209)
updateCurrDst(46218)
updateCurrDst(46222)
updateCurrDst(46255)
updateCurrDst(46419)
Heartbeat CPU 0 instructions: 23000003 cycles: 7580584 heartbeat IPC: 3.04858 cumulative IPC: 3.03407 (Simulation time: 0 hr 2 min 41 sec) 
updateCurrDst(46590)
updateCurrDst(46713)
updateCurrDst(46728)
updateCurrDst(46791)
updateCurrDst(46934)
updateCurrDst(47006)
updateCurrDst(47285)
updateCurrDst(47404)
updateCurrDst(47456)
updateCurrDst(47503)
updateCurrDst(47621)
updateCurrDst(47993)
updateCurrDst(47994)
updateCurrDst(48033)
updateCurrDst(48218)
updateCurrDst(48255)
updateCurrDst(48288)
updateCurrDst(48642)
updateCurrDst(48733)
updateCurrDst(48760)
Heartbeat CPU 0 instructions: 24000002 cycles: 7908317 heartbeat IPC: 3.05126 cumulative IPC: 3.03478 (Simulation time: 0 hr 2 min 47 sec) 
updateCurrDst(49174)
updateCurrDst(49305)
updateCurrDst(49319)
updateCurrDst(49385)
updateCurrDst(49561)
updateCurrDst(49659)
updateCurrDst(49705)
updateCurrDst(49821)
updateCurrDst(49833)
updateCurrDst(49868)
updateCurrDst(50021)
updateCurrDst(50042)
updateCurrDst(50101)
updateCurrDst(50200)
updateCurrDst(50225)
updateCurrDst(50232)
updateCurrDst(50286)
updateCurrDst(50340)
updateCurrDst(50580)
updateCurrDst(50680)
updateCurrDst(50778)
updateCurrDst(50879)
updateCurrDst(50917)
updateCurrDst(51109)
updateCurrDst(51155)
updateCurrDst(51156)
updateCurrDst(51431)
updateCurrDst(51622)
Heartbeat CPU 0 instructions: 25000002 cycles: 8235938 heartbeat IPC: 3.05231 cumulative IPC: 3.03548 (Simulation time: 0 hr 2 min 52 sec) 
updateCurrDst(51718)
updateCurrDst(51775)
updateCurrDst(51806)
updateCurrDst(52041)
updateCurrDst(52335)
updateCurrDst(52403)
updateCurrDst(52430)
updateCurrDst(52494)
updateCurrDst(52553)
updateCurrDst(52564)
updateCurrDst(52714)
updateCurrDst(52802)
updateCurrDst(52843)
updateCurrDst(52870)
updateCurrDst(53002)
updateCurrDst(53009)
updateCurrDst(53108)
updateCurrDst(53158)
updateCurrDst(53371)
updateCurrDst(53436)
updateCurrDst(53475)
updateCurrDst(53485)
updateCurrDst(53550)
updateCurrDst(53580)
updateCurrDst(53734)
updateCurrDst(53743)
updateCurrDst(53879)
updateCurrDst(53960)
updateCurrDst(54133)
Heartbeat CPU 0 instructions: 26000001 cycles: 8563747 heartbeat IPC: 3.05055 cumulative IPC: 3.03605 (Simulation time: 0 hr 2 min 58 sec) 
updateCurrDst(54294)
updateCurrDst(54354)
updateCurrDst(54537)
updateCurrDst(54599)
updateCurrDst(54737)
updateCurrDst(54773)
updateCurrDst(54977)
updateCurrDst(55094)
updateCurrDst(55208)
updateCurrDst(55244)
updateCurrDst(55345)
updateCurrDst(55349)
updateCurrDst(55447)
updateCurrDst(55477)
updateCurrDst(55497)
updateCurrDst(55520)
updateCurrDst(55531)
updateCurrDst(55688)
updateCurrDst(55712)
updateCurrDst(55713)
updateCurrDst(55748)
updateCurrDst(55767)
updateCurrDst(55843)
updateCurrDst(55970)
updateCurrDst(56083)
updateCurrDst(56098)
updateCurrDst(56124)
updateCurrDst(56207)
updateCurrDst(56219)
updateCurrDst(56548)
updateCurrDst(56550)
updateCurrDst(56686)
updateCurrDst(56700)
updateCurrDst(56705)
updateCurrDst(56815)
Heartbeat CPU 0 instructions: 27000002 cycles: 8891528 heartbeat IPC: 3.05082 cumulative IPC: 3.0366 (Simulation time: 0 hr 3 min 4 sec) 
updateCurrDst(57052)
updateCurrDst(57154)
updateCurrDst(57196)
updateCurrDst(57341)
updateCurrDst(57408)
updateCurrDst(57490)
updateCurrDst(57652)
updateCurrDst(57707)
updateCurrDst(57811)
updateCurrDst(57886)
updateCurrDst(57955)
updateCurrDst(58008)
updateCurrDst(58059)
updateCurrDst(58388)
updateCurrDst(58434)
updateCurrDst(58486)
updateCurrDst(58688)
updateCurrDst(58839)
updateCurrDst(58843)
updateCurrDst(58883)
updateCurrDst(59101)
updateCurrDst(59183)
updateCurrDst(59335)
updateCurrDst(59360)
updateCurrDst(59363)
updateCurrDst(59427)
Heartbeat CPU 0 instructions: 28000002 cycles: 9219176 heartbeat IPC: 3.05206 cumulative IPC: 3.03715 (Simulation time: 0 hr 3 min 10 sec) 
updateCurrDst(59454)
updateCurrDst(59673)
updateCurrDst(59764)
updateCurrDst(59814)
updateCurrDst(59844)
updateCurrDst(59943)
updateCurrDst(59951)
updateCurrDst(59966)
updateCurrDst(59972)
updateCurrDst(60220)
updateCurrDst(60481)
updateCurrDst(60560)
updateCurrDst(60676)
updateCurrDst(60683)
updateCurrDst(60732)
updateCurrDst(60737)
updateCurrDst(60740)
updateCurrDst(60822)
updateCurrDst(61197)
updateCurrDst(61241)
updateCurrDst(61278)
updateCurrDst(61383)
updateCurrDst(61542)
updateCurrDst(61555)
updateCurrDst(61747)
updateCurrDst(61878)
Heartbeat CPU 0 instructions: 29000000 cycles: 9546664 heartbeat IPC: 3.05354 cumulative IPC: 3.03771 (Simulation time: 0 hr 3 min 16 sec) 
updateCurrDst(62158)
updateCurrDst(62180)
updateCurrDst(62228)
updateCurrDst(62320)
updateCurrDst(62474)
updateCurrDst(62505)
updateCurrDst(62692)
updateCurrDst(62755)
updateCurrDst(62830)
updateCurrDst(62866)
updateCurrDst(62898)
updateCurrDst(62923)
updateCurrDst(63113)
updateCurrDst(63234)
updateCurrDst(63247)
updateCurrDst(63490)
updateCurrDst(63747)
updateCurrDst(63778)
updateCurrDst(63809)
updateCurrDst(63826)
updateCurrDst(63842)
updateCurrDst(64103)
updateCurrDst(64293)
Heartbeat CPU 0 instructions: 30000001 cycles: 9874562 heartbeat IPC: 3.04973 cumulative IPC: 3.03811 (Simulation time: 0 hr 3 min 22 sec) 
updateCurrDst(64735)
updateCurrDst(64740)
updateCurrDst(64744)
updateCurrDst(64934)
updateCurrDst(65026)
updateCurrDst(65153)
updateCurrDst(65288)
updateCurrDst(65429)
updateCurrDst(65480)
updateCurrDst(65505)
updateCurrDst(65554)
updateCurrDst(65604)
updateCurrDst(65649)
updateCurrDst(65773)
updateCurrDst(65840)
updateCurrDst(65910)
updateCurrDst(66033)
updateCurrDst(66267)
updateCurrDst(66343)
updateCurrDst(66417)
updateCurrDst(66714)
updateCurrDst(66871)
Heartbeat CPU 0 instructions: 31000003 cycles: 10202592 heartbeat IPC: 3.04851 cumulative IPC: 3.03844 (Simulation time: 0 hr 3 min 28 sec) 
updateCurrDst(67281)
updateCurrDst(67375)
updateCurrDst(67396)
updateCurrDst(67448)
updateCurrDst(67462)
updateCurrDst(67753)
updateCurrDst(67755)
updateCurrDst(67852)
updateCurrDst(67905)
updateCurrDst(67966)
updateCurrDst(67996)
updateCurrDst(68008)
updateCurrDst(68068)
updateCurrDst(68147)
updateCurrDst(68196)
updateCurrDst(68227)
updateCurrDst(68308)
updateCurrDst(68462)
updateCurrDst(68469)
updateCurrDst(68569)
updateCurrDst(68623)
updateCurrDst(68859)
updateCurrDst(68900)
updateCurrDst(68917)
updateCurrDst(69092)
updateCurrDst(69097)
updateCurrDst(69122)
updateCurrDst(69241)
updateCurrDst(69269)
updateCurrDst(69473)
updateCurrDst(69723)
updateCurrDst(69795)
updateCurrDst(69803)
Heartbeat CPU 0 instructions: 32000002 cycles: 10530071 heartbeat IPC: 3.05363 cumulative IPC: 3.03892 (Simulation time: 0 hr 3 min 33 sec) 
updateCurrDst(70052)
updateCurrDst(70153)
updateCurrDst(70323)
updateCurrDst(70405)
updateCurrDst(70662)
updateCurrDst(70692)
updateCurrDst(70732)
updateCurrDst(70771)
updateCurrDst(70816)
updateCurrDst(71035)
updateCurrDst(71069)
updateCurrDst(71086)
updateCurrDst(71170)
updateCurrDst(71197)
updateCurrDst(71338)
updateCurrDst(71634)
updateCurrDst(71670)
updateCurrDst(71835)
updateCurrDst(71870)
updateCurrDst(71895)
updateCurrDst(71960)
updateCurrDst(72224)
updateCurrDst(72402)
Heartbeat CPU 0 instructions: 33000000 cycles: 10857513 heartbeat IPC: 3.05397 cumulative IPC: 3.03937 (Simulation time: 0 hr 3 min 39 sec) 
updateCurrDst(72421)
updateCurrDst(72581)
updateCurrDst(72728)
updateCurrDst(72739)
updateCurrDst(72747)
updateCurrDst(72752)
updateCurrDst(72883)
updateCurrDst(72920)
updateCurrDst(73036)
updateCurrDst(73038)
updateCurrDst(73304)
updateCurrDst(73392)
updateCurrDst(73526)
updateCurrDst(73527)
updateCurrDst(73656)
updateCurrDst(73847)
updateCurrDst(73900)
updateCurrDst(73944)
updateCurrDst(74217)
updateCurrDst(74309)
updateCurrDst(74337)
updateCurrDst(74582)
updateCurrDst(74631)
updateCurrDst(74674)
updateCurrDst(74754)
updateCurrDst(74887)
Heartbeat CPU 0 instructions: 34000002 cycles: 11185203 heartbeat IPC: 3.05167 cumulative IPC: 3.03973 (Simulation time: 0 hr 3 min 45 sec) 
updateCurrDst(75031)
updateCurrDst(75139)
updateCurrDst(75174)
updateCurrDst(75261)
updateCurrDst(75401)
updateCurrDst(75511)
updateCurrDst(75513)
updateCurrDst(75533)
updateCurrDst(75672)
updateCurrDst(75757)
updateCurrDst(75919)
updateCurrDst(76066)
updateCurrDst(76124)
updateCurrDst(76165)
updateCurrDst(76335)
updateCurrDst(76372)
updateCurrDst(76465)
updateCurrDst(76627)
updateCurrDst(76782)
updateCurrDst(76812)
updateCurrDst(76831)
updateCurrDst(76940)
updateCurrDst(77189)
updateCurrDst(77216)
updateCurrDst(77221)
updateCurrDst(77228)
updateCurrDst(77263)
updateCurrDst(77277)
updateCurrDst(77311)
updateCurrDst(77361)
updateCurrDst(77472)
Heartbeat CPU 0 instructions: 35000000 cycles: 11512861 heartbeat IPC: 3.05196 cumulative IPC: 3.04008 (Simulation time: 0 hr 3 min 51 sec) 
updateCurrDst(77921)
updateCurrDst(78112)
updateCurrDst(78206)
updateCurrDst(78225)
updateCurrDst(78232)
updateCurrDst(78263)
updateCurrDst(78300)
updateCurrDst(78360)
updateCurrDst(78365)
updateCurrDst(78504)
updateCurrDst(78507)
updateCurrDst(78512)
updateCurrDst(78536)
updateCurrDst(78641)
updateCurrDst(78729)
updateCurrDst(78853)
updateCurrDst(78984)
updateCurrDst(79020)
updateCurrDst(79032)
updateCurrDst(79189)
updateCurrDst(79197)
updateCurrDst(79314)
updateCurrDst(79413)
updateCurrDst(79439)
updateCurrDst(79455)
updateCurrDst(79511)
updateCurrDst(79571)
updateCurrDst(79586)
updateCurrDst(79598)
updateCurrDst(79688)
updateCurrDst(79730)
updateCurrDst(79796)
updateCurrDst(79811)
updateCurrDst(79874)
updateCurrDst(79999)
updateCurrDst(80137)
Heartbeat CPU 0 instructions: 36000000 cycles: 11840600 heartbeat IPC: 3.05121 cumulative IPC: 3.04039 (Simulation time: 0 hr 3 min 57 sec) 
updateCurrDst(80180)
updateCurrDst(80266)
updateCurrDst(80267)
updateCurrDst(80280)
updateCurrDst(80356)
updateCurrDst(80601)
updateCurrDst(80826)
updateCurrDst(80872)
updateCurrDst(80902)
updateCurrDst(80946)
updateCurrDst(80981)
updateCurrDst(80982)
updateCurrDst(81015)
updateCurrDst(81156)
updateCurrDst(81180)
updateCurrDst(81264)
updateCurrDst(81412)
updateCurrDst(81471)
updateCurrDst(81508)
updateCurrDst(81694)
updateCurrDst(81819)
updateCurrDst(82059)
updateCurrDst(82130)
updateCurrDst(82157)
updateCurrDst(82222)
updateCurrDst(82277)
updateCurrDst(82342)
updateCurrDst(82447)
updateCurrDst(82534)
updateCurrDst(82566)
updateCurrDst(82624)
updateCurrDst(82704)
Heartbeat CPU 0 instructions: 37000001 cycles: 12168327 heartbeat IPC: 3.05132 cumulative IPC: 3.04068 (Simulation time: 0 hr 4 min 8 sec) 
updateCurrDst(82897)
updateCurrDst(82958)
updateCurrDst(83038)
updateCurrDst(83149)
updateCurrDst(83185)
updateCurrDst(83189)
updateCurrDst(83227)
updateCurrDst(83244)
updateCurrDst(83258)
updateCurrDst(83265)
updateCurrDst(83275)
updateCurrDst(83350)
updateCurrDst(83497)
updateCurrDst(83512)
updateCurrDst(83607)
updateCurrDst(83669)
updateCurrDst(83679)
updateCurrDst(83700)
updateCurrDst(83741)
updateCurrDst(83745)
updateCurrDst(83935)
updateCurrDst(83999)
updateCurrDst(84152)
updateCurrDst(84164)
updateCurrDst(84168)
updateCurrDst(84200)
updateCurrDst(84265)
updateCurrDst(84267)
updateCurrDst(84354)
updateCurrDst(84455)
updateCurrDst(84637)
updateCurrDst(84641)
updateCurrDst(84644)
updateCurrDst(84806)
updateCurrDst(84879)
updateCurrDst(84960)
updateCurrDst(85117)
Heartbeat CPU 0 instructions: 38000002 cycles: 12496103 heartbeat IPC: 3.05087 cumulative IPC: 3.04095 (Simulation time: 0 hr 4 min 16 sec) 
updateCurrDst(85554)
updateCurrDst(85700)
updateCurrDst(85973)
updateCurrDst(85986)
updateCurrDst(86485)
updateCurrDst(86674)
updateCurrDst(86771)
updateCurrDst(86773)
updateCurrDst(86841)
updateCurrDst(87015)
updateCurrDst(87060)
updateCurrDst(87136)
updateCurrDst(87187)
updateCurrDst(87289)
updateCurrDst(87618)
updateCurrDst(87877)
updateCurrDst(87892)
updateCurrDst(87924)
updateCurrDst(87927)
Heartbeat CPU 0 instructions: 39000000 cycles: 12823730 heartbeat IPC: 3.05225 cumulative IPC: 3.04124 (Simulation time: 0 hr 4 min 22 sec) 
updateCurrDst(88318)
updateCurrDst(88326)
updateCurrDst(88535)
updateCurrDst(88558)
updateCurrDst(88650)
updateCurrDst(88663)
updateCurrDst(88736)
updateCurrDst(88748)
updateCurrDst(88784)
updateCurrDst(88982)
updateCurrDst(89019)
updateCurrDst(89073)
updateCurrDst(89300)
updateCurrDst(89302)
updateCurrDst(89348)
updateCurrDst(89401)
updateCurrDst(89448)
updateCurrDst(89684)
updateCurrDst(89825)
updateCurrDst(89925)
updateCurrDst(89932)
updateCurrDst(90027)
updateCurrDst(90091)
updateCurrDst(90094)
updateCurrDst(90142)
updateCurrDst(90399)
updateCurrDst(90418)
updateCurrDst(90437)
updateCurrDst(90446)
updateCurrDst(90473)
updateCurrDst(90536)
Heartbeat CPU 0 instructions: 40000003 cycles: 13151379 heartbeat IPC: 3.05206 cumulative IPC: 3.04151 (Simulation time: 0 hr 4 min 31 sec) 
updateCurrDst(90689)
updateCurrDst(90796)
updateCurrDst(90808)
updateCurrDst(91032)
updateCurrDst(91051)
updateCurrDst(91087)
updateCurrDst(91090)
updateCurrDst(91099)
updateCurrDst(91199)
updateCurrDst(91241)
updateCurrDst(91242)
updateCurrDst(91260)
updateCurrDst(91341)
updateCurrDst(91343)
updateCurrDst(91360)
updateCurrDst(91516)
updateCurrDst(91647)
updateCurrDst(91664)
updateCurrDst(91671)
updateCurrDst(91788)
updateCurrDst(91799)
updateCurrDst(91815)
updateCurrDst(91906)
updateCurrDst(91917)
updateCurrDst(92065)
updateCurrDst(92118)
updateCurrDst(92402)
updateCurrDst(92499)
updateCurrDst(92512)
updateCurrDst(92658)
updateCurrDst(92722)
updateCurrDst(92786)
updateCurrDst(92859)
updateCurrDst(92864)
updateCurrDst(92893)
updateCurrDst(92962)
updateCurrDst(92970)
updateCurrDst(93050)
updateCurrDst(93186)
Heartbeat CPU 0 instructions: 41000002 cycles: 13479028 heartbeat IPC: 3.05204 cumulative IPC: 3.04176 (Simulation time: 0 hr 4 min 38 sec) 
updateCurrDst(93531)
updateCurrDst(93556)
updateCurrDst(93575)
updateCurrDst(93607)
updateCurrDst(93705)
updateCurrDst(93763)
updateCurrDst(93770)
updateCurrDst(93789)
updateCurrDst(93919)
updateCurrDst(94025)
updateCurrDst(94173)
updateCurrDst(94276)
updateCurrDst(94334)
updateCurrDst(94363)
updateCurrDst(94392)
updateCurrDst(94417)
updateCurrDst(94489)
updateCurrDst(94533)
updateCurrDst(94619)
updateCurrDst(94829)
updateCurrDst(94832)
updateCurrDst(94842)
updateCurrDst(94918)
updateCurrDst(95144)
updateCurrDst(95274)
updateCurrDst(95499)
updateCurrDst(95565)
updateCurrDst(95575)
updateCurrDst(95601)
updateCurrDst(95732)
Heartbeat CPU 0 instructions: 42000001 cycles: 13806459 heartbeat IPC: 3.05408 cumulative IPC: 3.04205 (Simulation time: 0 hr 4 min 44 sec) 
updateCurrDst(95848)
updateCurrDst(95961)
updateCurrDst(95976)
updateCurrDst(96112)
updateCurrDst(96323)
updateCurrDst(96382)
updateCurrDst(96426)
updateCurrDst(96432)
updateCurrDst(96465)
updateCurrDst(96471)
updateCurrDst(96586)
updateCurrDst(96590)
updateCurrDst(96611)
updateCurrDst(97098)
updateCurrDst(97125)
updateCurrDst(97188)
updateCurrDst(97231)
updateCurrDst(97470)
updateCurrDst(97636)
updateCurrDst(97714)
updateCurrDst(97772)
updateCurrDst(97990)
updateCurrDst(98039)
updateCurrDst(98132)
updateCurrDst(98145)
updateCurrDst(98370)
Heartbeat CPU 0 instructions: 43000001 cycles: 14134454 heartbeat IPC: 3.04883 cumulative IPC: 3.04221 (Simulation time: 0 hr 4 min 52 sec) 
updateCurrDst(98401)
updateCurrDst(98460)
updateCurrDst(98489)
updateCurrDst(98711)
updateCurrDst(98739)
updateCurrDst(98779)
updateCurrDst(98924)
updateCurrDst(98947)
updateCurrDst(99121)
updateCurrDst(99130)
updateCurrDst(99435)
updateCurrDst(99470)
updateCurrDst(99584)
updateCurrDst(99696)
updateCurrDst(99699)
updateCurrDst(99799)
updateCurrDst(99833)
updateCurrDst(99851)
updateCurrDst(99999)
updateCurrDst(100103)
updateCurrDst(100204)
updateCurrDst(100237)
updateCurrDst(100277)
updateCurrDst(100683)
updateCurrDst(100685)
updateCurrDst(100700)
updateCurrDst(100733)
Heartbeat CPU 0 instructions: 44000000 cycles: 14462309 heartbeat IPC: 3.05013 cumulative IPC: 3.04239 (Simulation time: 0 hr 4 min 59 sec) 
updateCurrDst(101043)
updateCurrDst(101070)
updateCurrDst(101103)
updateCurrDst(101245)
updateCurrDst(101258)
updateCurrDst(101309)
updateCurrDst(101508)
updateCurrDst(101586)
updateCurrDst(101591)
updateCurrDst(101745)
updateCurrDst(101808)
updateCurrDst(101914)
updateCurrDst(102177)
updateCurrDst(102357)
updateCurrDst(102502)
updateCurrDst(102544)
updateCurrDst(102602)
updateCurrDst(102612)
updateCurrDst(102663)
updateCurrDst(102737)
updateCurrDst(103193)
updateCurrDst(103215)
updateCurrDst(103288)
updateCurrDst(103307)
updateCurrDst(103369)
Heartbeat CPU 0 instructions: 45000002 cycles: 14790294 heartbeat IPC: 3.04893 cumulative IPC: 3.04254 (Simulation time: 0 hr 5 min 7 sec) 
updateCurrDst(103634)
updateCurrDst(103857)
updateCurrDst(103874)
updateCurrDst(103921)
updateCurrDst(104068)
updateCurrDst(104112)
updateCurrDst(104419)
updateCurrDst(104513)
updateCurrDst(104556)
updateCurrDst(104609)
updateCurrDst(104640)
updateCurrDst(104715)
updateCurrDst(104765)
updateCurrDst(104775)
updateCurrDst(104830)
updateCurrDst(104848)
updateCurrDst(104905)
updateCurrDst(104985)
updateCurrDst(105071)
updateCurrDst(105085)
updateCurrDst(105091)
updateCurrDst(105347)
updateCurrDst(105579)
updateCurrDst(105733)
updateCurrDst(105755)
updateCurrDst(105793)
updateCurrDst(105931)
updateCurrDst(105947)
updateCurrDst(105950)
updateCurrDst(106009)
updateCurrDst(106096)
updateCurrDst(106174)
updateCurrDst(106194)
Heartbeat CPU 0 instructions: 46000003 cycles: 15118163 heartbeat IPC: 3.05 cumulative IPC: 3.0427 (Simulation time: 0 hr 5 min 12 sec) 
updateCurrDst(106214)
updateCurrDst(106363)
updateCurrDst(106386)
updateCurrDst(106417)
updateCurrDst(106497)
updateCurrDst(106752)
updateCurrDst(106821)
updateCurrDst(107126)
updateCurrDst(107263)
updateCurrDst(107599)
updateCurrDst(107696)
updateCurrDst(107844)
updateCurrDst(107916)
updateCurrDst(108048)
updateCurrDst(108074)
updateCurrDst(108143)
updateCurrDst(108226)
updateCurrDst(108317)
updateCurrDst(108320)
updateCurrDst(108391)
updateCurrDst(108631)
updateCurrDst(108735)
updateCurrDst(108788)
Heartbeat CPU 0 instructions: 47000001 cycles: 15445541 heartbeat IPC: 3.05457 cumulative IPC: 3.04295 (Simulation time: 0 hr 5 min 22 sec) 
updateCurrDst(109032)
updateCurrDst(109104)
updateCurrDst(109221)
updateCurrDst(109273)
updateCurrDst(109288)
updateCurrDst(109420)
updateCurrDst(109422)
updateCurrDst(109628)
updateCurrDst(109835)
updateCurrDst(109841)
updateCurrDst(109941)
updateCurrDst(110008)
updateCurrDst(110048)
updateCurrDst(110097)
updateCurrDst(110141)
updateCurrDst(110471)
updateCurrDst(110507)
updateCurrDst(110665)
updateCurrDst(110903)
updateCurrDst(110926)
updateCurrDst(110927)
updateCurrDst(111199)
updateCurrDst(111225)
updateCurrDst(111264)
updateCurrDst(111342)
Heartbeat CPU 0 instructions: 48000000 cycles: 15773228 heartbeat IPC: 3.05169 cumulative IPC: 3.04313 (Simulation time: 0 hr 5 min 30 sec) 
updateCurrDst(111456)
updateCurrDst(111525)
updateCurrDst(111553)
updateCurrDst(111555)
updateCurrDst(111592)
updateCurrDst(111610)
updateCurrDst(111685)
updateCurrDst(111761)
updateCurrDst(111772)
updateCurrDst(111811)
updateCurrDst(112000)
updateCurrDst(112110)
updateCurrDst(112317)
updateCurrDst(112388)
updateCurrDst(112452)
updateCurrDst(112727)
updateCurrDst(112880)
updateCurrDst(113008)
updateCurrDst(113096)
updateCurrDst(113143)
updateCurrDst(113177)
updateCurrDst(113228)
updateCurrDst(113281)
updateCurrDst(113377)
updateCurrDst(113453)
updateCurrDst(113633)
updateCurrDst(113656)
updateCurrDst(113788)
updateCurrDst(113790)
updateCurrDst(113940)
updateCurrDst(113944)
updateCurrDst(113962)
updateCurrDst(113998)
Heartbeat CPU 0 instructions: 49000001 cycles: 16101037 heartbeat IPC: 3.05056 cumulative IPC: 3.04328 (Simulation time: 0 hr 5 min 38 sec) 
updateCurrDst(114027)
updateCurrDst(114088)
updateCurrDst(114238)
updateCurrDst(114615)
updateCurrDst(115050)
updateCurrDst(115124)
updateCurrDst(115128)
updateCurrDst(115147)
updateCurrDst(115179)
updateCurrDst(115252)
updateCurrDst(115393)
updateCurrDst(115649)
updateCurrDst(115804)
updateCurrDst(115930)
updateCurrDst(116503)
updateCurrDst(116573)
Heartbeat CPU 0 instructions: 50000003 cycles: 16428973 heartbeat IPC: 3.04938 cumulative IPC: 3.0434 (Simulation time: 0 hr 5 min 48 sec) 
updateCurrDst(116624)
updateCurrDst(116718)
updateCurrDst(116765)
updateCurrDst(116811)
updateCurrDst(117079)
updateCurrDst(117167)
updateCurrDst(117326)
updateCurrDst(117429)
updateCurrDst(117968)
updateCurrDst(118033)
updateCurrDst(118045)
updateCurrDst(118094)
updateCurrDst(118100)
updateCurrDst(118169)
updateCurrDst(118202)
updateCurrDst(118258)
updateCurrDst(118321)
updateCurrDst(118661)
updateCurrDst(118707)
updateCurrDst(118769)
updateCurrDst(118924)
updateCurrDst(118950)
updateCurrDst(118969)
updateCurrDst(118978)
updateCurrDst(118979)
updateCurrDst(119035)
updateCurrDst(119125)
updateCurrDst(119179)
Heartbeat CPU 0 instructions: 51000002 cycles: 16756885 heartbeat IPC: 3.0496 cumulative IPC: 3.04353 (Simulation time: 0 hr 5 min 54 sec) 
updateCurrDst(119460)
updateCurrDst(119726)
updateCurrDst(119816)
updateCurrDst(119877)
updateCurrDst(119971)
updateCurrDst(120025)
updateCurrDst(120815)
updateCurrDst(120908)
updateCurrDst(120944)
updateCurrDst(120991)
updateCurrDst(121422)
updateCurrDst(121517)
updateCurrDst(121597)
updateCurrDst(121607)
updateCurrDst(121613)
updateCurrDst(121783)
Heartbeat CPU 0 instructions: 52000002 cycles: 17084465 heartbeat IPC: 3.05269 cumulative IPC: 3.0437 (Simulation time: 0 hr 5 min 59 sec) 
updateCurrDst(121846)
updateCurrDst(121910)
updateCurrDst(121927)
updateCurrDst(122122)
updateCurrDst(122405)
updateCurrDst(122623)
updateCurrDst(122843)
updateCurrDst(122933)
updateCurrDst(123087)
updateCurrDst(123142)
updateCurrDst(123228)
updateCurrDst(123657)
updateCurrDst(123820)
updateCurrDst(124367)
updateCurrDst(124381)
updateCurrDst(124386)
Heartbeat CPU 0 instructions: 53000002 cycles: 17412447 heartbeat IPC: 3.04895 cumulative IPC: 3.0438 (Simulation time: 0 hr 6 min 6 sec) 
updateCurrDst(124526)
updateCurrDst(124535)
updateCurrDst(124636)
updateCurrDst(124647)
updateCurrDst(124655)
updateCurrDst(124675)
updateCurrDst(124783)
updateCurrDst(124902)
updateCurrDst(125117)
updateCurrDst(125188)
updateCurrDst(125221)
updateCurrDst(125228)
updateCurrDst(125315)
updateCurrDst(125345)
updateCurrDst(125388)
updateCurrDst(125652)
updateCurrDst(125782)
updateCurrDst(125862)
updateCurrDst(125904)
updateCurrDst(126026)
updateCurrDst(126108)
updateCurrDst(126224)
updateCurrDst(126358)
updateCurrDst(126434)
updateCurrDst(126477)
updateCurrDst(126567)
updateCurrDst(126688)
updateCurrDst(126920)
updateCurrDst(126978)
Heartbeat CPU 0 instructions: 54000001 cycles: 17740211 heartbeat IPC: 3.05097 cumulative IPC: 3.04393 (Simulation time: 0 hr 6 min 12 sec) 
updateCurrDst(127013)
updateCurrDst(127028)
updateCurrDst(127119)
updateCurrDst(127274)
updateCurrDst(127279)
updateCurrDst(127308)
updateCurrDst(128084)
updateCurrDst(128266)
updateCurrDst(128270)
updateCurrDst(128275)
updateCurrDst(128345)
updateCurrDst(128467)
updateCurrDst(128510)
updateCurrDst(128543)
updateCurrDst(128627)
updateCurrDst(128731)
updateCurrDst(128903)
updateCurrDst(128919)
updateCurrDst(128947)
updateCurrDst(128970)
updateCurrDst(129119)
updateCurrDst(129137)
updateCurrDst(129198)
updateCurrDst(129322)
updateCurrDst(129443)
updateCurrDst(129451)
updateCurrDst(129594)
Heartbeat CPU 0 instructions: 55000000 cycles: 18067827 heartbeat IPC: 3.05235 cumulative IPC: 3.04409 (Simulation time: 0 hr 6 min 18 sec) 

Warmup complete CPU 0 instructions: 55000004 cycles: 18067828 (Simulation time: 0 hr 6 min 18 sec) 

updateCurrDst(129674)
updateCurrDst(129735)
updateCurrDst(129753)
updateCurrDst(130123)
updateCurrDst(130193)
updateCurrDst(130255)
updateCurrDst(130309)
updateCurrDst(130375)
updateCurrDst(130455)
updateCurrDst(130547)
updateCurrDst(130586)
updateCurrDst(130641)
updateCurrDst(130853)
updateCurrDst(130880)
updateCurrDst(130905)
updateCurrDst(130948)
updateCurrDst(130999)
updateCurrDst(131010)
updateCurrDst(131091)
updateCurrDst(131225)
updateCurrDst(131596)
updateCurrDst(131597)
updateCurrDst(131689)
updateCurrDst(131740)
updateCurrDst(131802)
updateCurrDst(131866)
updateCurrDst(132174)
Heartbeat CPU 0 instructions: 56000000 cycles: 21096458 heartbeat IPC: 0.330182 cumulative IPC: 0.330181 (Simulation time: 0 hr 6 min 26 sec) 
updateCurrDst(132266)
updateCurrDst(132519)
updateCurrDst(132536)
updateCurrDst(132565)
updateCurrDst(132613)
updateCurrDst(132969)
updateCurrDst(133026)
updateCurrDst(133031)
updateCurrDst(133089)
updateCurrDst(133183)
updateCurrDst(133374)
updateCurrDst(133490)
updateCurrDst(133866)
updateCurrDst(134012)
updateCurrDst(134085)
updateCurrDst(134163)
updateCurrDst(134326)
updateCurrDst(134329)
updateCurrDst(134478)
updateCurrDst(134729)
Heartbeat CPU 0 instructions: 57000002 cycles: 24135610 heartbeat IPC: 0.32904 cumulative IPC: 0.329609 (Simulation time: 0 hr 6 min 37 sec) 
updateCurrDst(134865)
updateCurrDst(134899)
updateCurrDst(134998)
updateCurrDst(135592)
updateCurrDst(135717)
updateCurrDst(135889)
updateCurrDst(135963)
updateCurrDst(135998)
updateCurrDst(136112)
updateCurrDst(136222)
updateCurrDst(136327)
updateCurrDst(136352)
updateCurrDst(136366)
updateCurrDst(136511)
updateCurrDst(136683)
updateCurrDst(136777)
updateCurrDst(136837)
updateCurrDst(137213)
updateCurrDst(137386)
Heartbeat CPU 0 instructions: 58000003 cycles: 27155596 heartbeat IPC: 0.331128 cumulative IPC: 0.330114 (Simulation time: 0 hr 6 min 44 sec) 
updateCurrDst(137452)
updateCurrDst(138031)
updateCurrDst(138561)
updateCurrDst(138577)
updateCurrDst(138775)
updateCurrDst(138924)
updateCurrDst(138953)
updateCurrDst(139143)
updateCurrDst(139202)
updateCurrDst(139423)
updateCurrDst(139477)
updateCurrDst(139478)
updateCurrDst(139874)
Heartbeat CPU 0 instructions: 59000002 cycles: 30171663 heartbeat IPC: 0.331557 cumulative IPC: 0.330474 (Simulation time: 0 hr 6 min 50 sec) 
updateCurrDst(140071)
updateCurrDst(140124)
updateCurrDst(140267)
updateCurrDst(140307)
updateCurrDst(140409)
updateCurrDst(140470)
updateCurrDst(140502)
updateCurrDst(140611)
updateCurrDst(140634)
updateCurrDst(140679)
updateCurrDst(140942)
updateCurrDst(140977)
updateCurrDst(141106)
updateCurrDst(141188)
updateCurrDst(141200)
updateCurrDst(141269)
updateCurrDst(141341)
updateCurrDst(141529)
updateCurrDst(141531)
updateCurrDst(141675)
updateCurrDst(141747)
updateCurrDst(141936)
updateCurrDst(142121)
updateCurrDst(142323)
updateCurrDst(142331)
updateCurrDst(142355)
updateCurrDst(142439)
updateCurrDst(142440)
updateCurrDst(142538)
updateCurrDst(142564)
Heartbeat CPU 0 instructions: 60000000 cycles: 33207194 heartbeat IPC: 0.329431 cumulative IPC: 0.330265 (Simulation time: 0 hr 6 min 58 sec) 
updateCurrDst(142899)
updateCurrDst(143023)
updateCurrDst(143425)
updateCurrDst(143458)
updateCurrDst(143556)
updateCurrDst(143670)
updateCurrDst(143677)
updateCurrDst(143724)
updateCurrDst(143758)
updateCurrDst(144133)
updateCurrDst(144153)
updateCurrDst(144154)
updateCurrDst(144213)
updateCurrDst(144243)
updateCurrDst(144332)
updateCurrDst(144387)
updateCurrDst(144440)
updateCurrDst(144620)
updateCurrDst(144700)
updateCurrDst(144730)
updateCurrDst(144735)
updateCurrDst(144972)
updateCurrDst(145044)
updateCurrDst(145060)
Heartbeat CPU 0 instructions: 61000000 cycles: 36225464 heartbeat IPC: 0.331316 cumulative IPC: 0.330439 (Simulation time: 0 hr 7 min 7 sec) 
updateCurrDst(145343)
updateCurrDst(145484)
updateCurrDst(145548)
updateCurrDst(145751)
updateCurrDst(145877)
updateCurrDst(145899)
updateCurrDst(145907)
updateCurrDst(145973)
updateCurrDst(146110)
updateCurrDst(146142)
updateCurrDst(146193)
updateCurrDst(146206)
updateCurrDst(146235)
updateCurrDst(146388)
updateCurrDst(146448)
updateCurrDst(146552)
updateCurrDst(146755)
updateCurrDst(146767)
updateCurrDst(146883)
updateCurrDst(146966)
updateCurrDst(147019)
updateCurrDst(147272)
updateCurrDst(147275)
updateCurrDst(147289)
updateCurrDst(147306)
updateCurrDst(147332)
updateCurrDst(147340)
updateCurrDst(147345)
updateCurrDst(147398)
updateCurrDst(147426)
updateCurrDst(147429)
updateCurrDst(147644)
updateCurrDst(147693)
Heartbeat CPU 0 instructions: 62000000 cycles: 39261548 heartbeat IPC: 0.329372 cumulative IPC: 0.330286 (Simulation time: 0 hr 7 min 15 sec) 
updateCurrDst(147932)
updateCurrDst(148048)
updateCurrDst(148099)
updateCurrDst(148141)
updateCurrDst(148173)
updateCurrDst(148252)
updateCurrDst(148510)
updateCurrDst(148640)
updateCurrDst(148772)
updateCurrDst(148872)
updateCurrDst(149009)
updateCurrDst(149021)
updateCurrDst(149029)
updateCurrDst(149148)
updateCurrDst(149165)
updateCurrDst(149212)
updateCurrDst(149236)
updateCurrDst(149271)
updateCurrDst(149318)
updateCurrDst(149347)
updateCurrDst(149400)
updateCurrDst(149485)
updateCurrDst(149513)
updateCurrDst(149718)
updateCurrDst(149723)
updateCurrDst(149855)
updateCurrDst(149966)
updateCurrDst(150015)
updateCurrDst(150079)
updateCurrDst(150132)
updateCurrDst(150170)
updateCurrDst(150370)
Heartbeat CPU 0 instructions: 63000001 cycles: 42281120 heartbeat IPC: 0.331173 cumulative IPC: 0.330397 (Simulation time: 0 hr 7 min 22 sec) 
updateCurrDst(150400)
updateCurrDst(150440)
updateCurrDst(150494)
updateCurrDst(150495)
updateCurrDst(150613)
updateCurrDst(150626)
updateCurrDst(150654)
updateCurrDst(151067)
updateCurrDst(151165)
updateCurrDst(151187)
updateCurrDst(151227)
updateCurrDst(151251)
updateCurrDst(151511)
updateCurrDst(151519)
updateCurrDst(151536)
updateCurrDst(151589)
updateCurrDst(151647)
updateCurrDst(151836)
updateCurrDst(151980)
updateCurrDst(152149)
updateCurrDst(152153)
updateCurrDst(152283)
updateCurrDst(152338)
updateCurrDst(152340)
updateCurrDst(152425)
updateCurrDst(152618)
updateCurrDst(152718)
updateCurrDst(152886)
updateCurrDst(152923)
Heartbeat CPU 0 instructions: 64000001 cycles: 45307531 heartbeat IPC: 0.330424 cumulative IPC: 0.3304 (Simulation time: 0 hr 7 min 28 sec) 
updateCurrDst(153146)
updateCurrDst(153186)
updateCurrDst(153270)
updateCurrDst(153305)
updateCurrDst(153338)
updateCurrDst(153529)
updateCurrDst(153541)
updateCurrDst(153587)
updateCurrDst(153588)
updateCurrDst(153702)
updateCurrDst(153770)
updateCurrDst(153773)
updateCurrDst(153798)
updateCurrDst(153938)
updateCurrDst(153948)
updateCurrDst(154024)
updateCurrDst(154136)
updateCurrDst(154185)
updateCurrDst(154335)
updateCurrDst(154477)
updateCurrDst(154543)
updateCurrDst(154578)
updateCurrDst(154646)
updateCurrDst(154658)
updateCurrDst(154881)
updateCurrDst(154896)
updateCurrDst(155083)
updateCurrDst(155116)
updateCurrDst(155127)
updateCurrDst(155350)
updateCurrDst(155354)
updateCurrDst(155414)
Heartbeat CPU 0 instructions: 65000000 cycles: 48366994 heartbeat IPC: 0.326854 cumulative IPC: 0.330042 (Simulation time: 0 hr 7 min 35 sec) 
updateCurrDst(155692)
updateCurrDst(155702)
updateCurrDst(155850)
updateCurrDst(155872)
updateCurrDst(155947)
updateCurrDst(155963)
updateCurrDst(156007)
updateCurrDst(156065)
updateCurrDst(156256)
updateCurrDst(156328)
updateCurrDst(156730)
updateCurrDst(156822)
updateCurrDst(156845)
updateCurrDst(156999)
updateCurrDst(157101)
updateCurrDst(157169)
updateCurrDst(157326)
updateCurrDst(157429)
updateCurrDst(157541)
updateCurrDst(157546)
updateCurrDst(157695)
updateCurrDst(157806)
updateCurrDst(157837)
updateCurrDst(157850)
updateCurrDst(157900)
updateCurrDst(157919)
updateCurrDst(158156)
Heartbeat CPU 0 instructions: 66000000 cycles: 51387910 heartbeat IPC: 0.331025 cumulative IPC: 0.330131 (Simulation time: 0 hr 7 min 41 sec) 
updateCurrDst(158484)
updateCurrDst(158692)
updateCurrDst(158867)
updateCurrDst(158901)
updateCurrDst(159003)
updateCurrDst(159020)
updateCurrDst(159025)
updateCurrDst(159576)
updateCurrDst(159605)
updateCurrDst(159734)
updateCurrDst(159884)
updateCurrDst(159976)
updateCurrDst(160084)
updateCurrDst(160121)
updateCurrDst(160124)
updateCurrDst(160223)
updateCurrDst(160290)
updateCurrDst(160337)
updateCurrDst(160416)
updateCurrDst(160536)
updateCurrDst(160551)
updateCurrDst(160589)
updateCurrDst(160610)
updateCurrDst(160621)
updateCurrDst(160738)
Heartbeat CPU 0 instructions: 67000001 cycles: 54421135 heartbeat IPC: 0.329682 cumulative IPC: 0.330094 (Simulation time: 0 hr 7 min 47 sec) 
updateCurrDst(160885)
updateCurrDst(161043)
updateCurrDst(161120)
updateCurrDst(161137)
updateCurrDst(161171)
updateCurrDst(161256)
updateCurrDst(161324)
updateCurrDst(161338)
updateCurrDst(161363)
updateCurrDst(161413)
updateCurrDst(161454)
updateCurrDst(161514)
updateCurrDst(161555)
updateCurrDst(161629)
updateCurrDst(161767)
updateCurrDst(161917)
updateCurrDst(162295)
updateCurrDst(162534)
updateCurrDst(162733)
updateCurrDst(162781)
updateCurrDst(162908)
updateCurrDst(162936)
updateCurrDst(162945)
updateCurrDst(162996)
updateCurrDst(163165)
updateCurrDst(163288)
Heartbeat CPU 0 instructions: 68000000 cycles: 57453415 heartbeat IPC: 0.329785 cumulative IPC: 0.33007 (Simulation time: 0 hr 7 min 53 sec) 
updateCurrDst(163353)
updateCurrDst(163391)
updateCurrDst(163601)
updateCurrDst(163674)
updateCurrDst(163705)
updateCurrDst(163757)
updateCurrDst(163909)
updateCurrDst(163959)
updateCurrDst(163980)
updateCurrDst(164030)
updateCurrDst(164075)
updateCurrDst(164091)
updateCurrDst(164167)
updateCurrDst(164457)
updateCurrDst(164475)
updateCurrDst(164689)
updateCurrDst(165166)
updateCurrDst(165170)
updateCurrDst(165242)
updateCurrDst(165312)
updateCurrDst(165331)
updateCurrDst(165439)
updateCurrDst(165579)
updateCurrDst(165593)
updateCurrDst(165715)
updateCurrDst(165724)
updateCurrDst(165727)
updateCurrDst(165749)
updateCurrDst(165906)
updateCurrDst(165927)
updateCurrDst(165949)
Heartbeat CPU 0 instructions: 69000001 cycles: 60474359 heartbeat IPC: 0.331023 cumulative IPC: 0.330138 (Simulation time: 0 hr 8 min 0 sec) 
updateCurrDst(166014)
updateCurrDst(166059)
updateCurrDst(166280)
updateCurrDst(166291)
updateCurrDst(166380)
updateCurrDst(166433)
updateCurrDst(166440)
updateCurrDst(166465)
updateCurrDst(166538)
updateCurrDst(166661)
updateCurrDst(166674)
updateCurrDst(166875)
updateCurrDst(166928)
updateCurrDst(167113)
updateCurrDst(167175)
updateCurrDst(167412)
updateCurrDst(167509)
updateCurrDst(168116)
updateCurrDst(168139)
updateCurrDst(168270)
updateCurrDst(168278)
updateCurrDst(168350)
updateCurrDst(168361)
Heartbeat CPU 0 instructions: 70000001 cycles: 63514322 heartbeat IPC: 0.328951 cumulative IPC: 0.330058 (Simulation time: 0 hr 8 min 9 sec) 
updateCurrDst(168708)
updateCurrDst(168751)
updateCurrDst(168909)
updateCurrDst(169030)
updateCurrDst(169125)
updateCurrDst(169195)
updateCurrDst(169256)
updateCurrDst(169336)
updateCurrDst(169353)
updateCurrDst(169490)
updateCurrDst(169494)
updateCurrDst(169598)
updateCurrDst(169670)
updateCurrDst(169683)
updateCurrDst(169697)
updateCurrDst(169887)
updateCurrDst(170119)
updateCurrDst(170141)
updateCurrDst(170145)
updateCurrDst(170245)
updateCurrDst(170290)
updateCurrDst(170324)
updateCurrDst(170557)
updateCurrDst(170625)
updateCurrDst(170718)
updateCurrDst(170950)
updateCurrDst(171078)
updateCurrDst(171083)
updateCurrDst(171124)
Heartbeat CPU 0 instructions: 71000000 cycles: 66531484 heartbeat IPC: 0.331437 cumulative IPC: 0.330144 (Simulation time: 0 hr 8 min 20 sec) 
updateCurrDst(171417)
updateCurrDst(171475)
updateCurrDst(171738)
updateCurrDst(171859)
updateCurrDst(171878)
updateCurrDst(171935)
updateCurrDst(172067)
updateCurrDst(172139)
updateCurrDst(172406)
updateCurrDst(172448)
updateCurrDst(172568)
updateCurrDst(172644)
updateCurrDst(172664)
updateCurrDst(173013)
updateCurrDst(173100)
updateCurrDst(173111)
updateCurrDst(173189)
updateCurrDst(173232)
updateCurrDst(173522)
updateCurrDst(173571)
updateCurrDst(173659)
Heartbeat CPU 0 instructions: 72000000 cycles: 69559731 heartbeat IPC: 0.330224 cumulative IPC: 0.330149 (Simulation time: 0 hr 8 min 28 sec) 
updateCurrDst(174020)
updateCurrDst(174184)
updateCurrDst(174203)
updateCurrDst(174605)
updateCurrDst(174687)
updateCurrDst(174826)
updateCurrDst(174961)
updateCurrDst(175077)
updateCurrDst(175272)
updateCurrDst(175303)
updateCurrDst(175539)
updateCurrDst(175707)
updateCurrDst(175755)
updateCurrDst(175853)
updateCurrDst(175888)
updateCurrDst(176237)
updateCurrDst(176260)
updateCurrDst(176287)
Heartbeat CPU 0 instructions: 73000000 cycles: 72592577 heartbeat IPC: 0.329723 cumulative IPC: 0.330125 (Simulation time: 0 hr 8 min 34 sec) 
updateCurrDst(176356)
updateCurrDst(176363)
updateCurrDst(176413)
updateCurrDst(176658)
updateCurrDst(176760)
updateCurrDst(176768)
updateCurrDst(176840)
updateCurrDst(176885)
updateCurrDst(176897)
updateCurrDst(177016)
updateCurrDst(177053)
updateCurrDst(177102)
updateCurrDst(177294)
updateCurrDst(177408)
updateCurrDst(177542)
updateCurrDst(177726)
updateCurrDst(177766)
updateCurrDst(178111)
updateCurrDst(178113)
updateCurrDst(178167)
updateCurrDst(178296)
updateCurrDst(178535)
updateCurrDst(178574)
updateCurrDst(178581)
updateCurrDst(178603)
updateCurrDst(178713)
updateCurrDst(178824)
Heartbeat CPU 0 instructions: 74000000 cycles: 75612424 heartbeat IPC: 0.331143 cumulative IPC: 0.330179 (Simulation time: 0 hr 8 min 41 sec) 
updateCurrDst(179113)
updateCurrDst(179193)
updateCurrDst(179387)
updateCurrDst(179592)
updateCurrDst(179615)
updateCurrDst(179652)
updateCurrDst(179875)
updateCurrDst(179921)
updateCurrDst(180085)
updateCurrDst(180144)
updateCurrDst(180151)
updateCurrDst(180348)
updateCurrDst(180441)
updateCurrDst(180613)
updateCurrDst(180968)
updateCurrDst(180975)
updateCurrDst(180992)
updateCurrDst(181453)
updateCurrDst(181479)
updateCurrDst(181533)
Heartbeat CPU 0 instructions: 75000000 cycles: 78658492 heartbeat IPC: 0.328292 cumulative IPC: 0.330084 (Simulation time: 0 hr 8 min 47 sec) 
updateCurrDst(181599)
updateCurrDst(181835)
updateCurrDst(181968)
updateCurrDst(181985)
updateCurrDst(182037)
updateCurrDst(182063)
updateCurrDst(182088)
updateCurrDst(182140)
updateCurrDst(182185)
updateCurrDst(182437)
updateCurrDst(182456)
updateCurrDst(182468)
updateCurrDst(182493)
updateCurrDst(182500)
updateCurrDst(182557)
updateCurrDst(182717)
updateCurrDst(182730)
updateCurrDst(182739)
updateCurrDst(182772)
updateCurrDst(182991)
updateCurrDst(183278)
updateCurrDst(183294)
updateCurrDst(183354)
updateCurrDst(183359)
updateCurrDst(183378)
updateCurrDst(183570)
updateCurrDst(184094)
updateCurrDst(184140)
updateCurrDst(184150)
updateCurrDst(184155)
Heartbeat CPU 0 instructions: 76000002 cycles: 81675223 heartbeat IPC: 0.331485 cumulative IPC: 0.33015 (Simulation time: 0 hr 8 min 54 sec) 
updateCurrDst(184349)
updateCurrDst(184448)
updateCurrDst(184466)
updateCurrDst(184630)
updateCurrDst(184711)
updateCurrDst(184771)
updateCurrDst(184944)
updateCurrDst(184994)
updateCurrDst(185092)
updateCurrDst(185102)
updateCurrDst(185130)
updateCurrDst(185301)
updateCurrDst(185350)
updateCurrDst(185470)
updateCurrDst(185598)
updateCurrDst(185640)
updateCurrDst(185737)
updateCurrDst(185907)
updateCurrDst(185948)
updateCurrDst(185959)
updateCurrDst(185978)
updateCurrDst(185990)
updateCurrDst(186305)
updateCurrDst(186307)
updateCurrDst(186465)
updateCurrDst(186660)
Heartbeat CPU 0 instructions: 77000000 cycles: 84699216 heartbeat IPC: 0.330688 cumulative IPC: 0.330175 (Simulation time: 0 hr 9 min 1 sec) 
updateCurrDst(186774)
updateCurrDst(186845)
updateCurrDst(186893)
updateCurrDst(186903)
updateCurrDst(187513)
updateCurrDst(187599)
updateCurrDst(187638)
updateCurrDst(187691)
updateCurrDst(187710)
updateCurrDst(188046)
updateCurrDst(188092)
updateCurrDst(188248)
updateCurrDst(188272)
updateCurrDst(188278)
updateCurrDst(188303)
updateCurrDst(188402)
updateCurrDst(188472)
updateCurrDst(188477)
updateCurrDst(188748)
updateCurrDst(188851)
updateCurrDst(188905)
updateCurrDst(188925)
updateCurrDst(188948)
updateCurrDst(188953)
updateCurrDst(189017)
updateCurrDst(189118)
updateCurrDst(189132)
Heartbeat CPU 0 instructions: 78000000 cycles: 87735054 heartbeat IPC: 0.329398 cumulative IPC: 0.330141 (Simulation time: 0 hr 9 min 7 sec) 
updateCurrDst(189458)
updateCurrDst(189645)
updateCurrDst(189909)
updateCurrDst(189954)
updateCurrDst(190082)
updateCurrDst(190176)
updateCurrDst(190178)
updateCurrDst(190191)
updateCurrDst(190535)
updateCurrDst(190614)
updateCurrDst(190653)
updateCurrDst(190666)
updateCurrDst(190806)
updateCurrDst(191014)
updateCurrDst(191054)
updateCurrDst(191076)
updateCurrDst(191172)
updateCurrDst(191183)
updateCurrDst(191194)
updateCurrDst(191197)
updateCurrDst(191243)
updateCurrDst(191292)
updateCurrDst(191298)
updateCurrDst(191301)
updateCurrDst(191310)
updateCurrDst(191441)
updateCurrDst(191845)
Heartbeat CPU 0 instructions: 79000001 cycles: 90754499 heartbeat IPC: 0.331187 cumulative IPC: 0.330184 (Simulation time: 0 hr 9 min 14 sec) 
updateCurrDst(192000)
updateCurrDst(192082)
updateCurrDst(192235)
updateCurrDst(192244)
updateCurrDst(192280)
updateCurrDst(192403)
updateCurrDst(192449)
updateCurrDst(192475)
updateCurrDst(192479)
updateCurrDst(192669)
updateCurrDst(192715)
updateCurrDst(192751)
updateCurrDst(192811)
updateCurrDst(193051)
updateCurrDst(193185)
updateCurrDst(193187)
updateCurrDst(193232)
updateCurrDst(193235)
updateCurrDst(193285)
updateCurrDst(193515)
updateCurrDst(193529)
updateCurrDst(193588)
updateCurrDst(193693)
updateCurrDst(193719)
updateCurrDst(193938)
updateCurrDst(193993)
updateCurrDst(194126)
updateCurrDst(194425)
updateCurrDst(194512)
Heartbeat CPU 0 instructions: 80000000 cycles: 93802018 heartbeat IPC: 0.328135 cumulative IPC: 0.330102 (Simulation time: 0 hr 9 min 20 sec) 
updateCurrDst(194547)
updateCurrDst(194685)
updateCurrDst(194691)
updateCurrDst(194813)
updateCurrDst(194859)
updateCurrDst(194877)
updateCurrDst(194914)
updateCurrDst(194925)
updateCurrDst(194962)
updateCurrDst(195034)
updateCurrDst(195145)
updateCurrDst(195297)
updateCurrDst(195326)
updateCurrDst(195472)
updateCurrDst(195623)
updateCurrDst(195652)
updateCurrDst(195702)
updateCurrDst(195726)
updateCurrDst(195808)
updateCurrDst(196050)
updateCurrDst(196147)
updateCurrDst(196306)
updateCurrDst(196410)
updateCurrDst(196703)
updateCurrDst(196824)
Heartbeat CPU 0 instructions: 81000002 cycles: 96819147 heartbeat IPC: 0.331442 cumulative IPC: 0.330153 (Simulation time: 0 hr 9 min 27 sec) 
updateCurrDst(197194)
updateCurrDst(197206)
updateCurrDst(197237)
updateCurrDst(197259)
updateCurrDst(197304)
updateCurrDst(197343)
updateCurrDst(197392)
updateCurrDst(197397)
updateCurrDst(197445)
updateCurrDst(197749)
updateCurrDst(197792)
updateCurrDst(197895)
updateCurrDst(197899)
updateCurrDst(197905)
updateCurrDst(197918)
updateCurrDst(197964)
updateCurrDst(197978)
updateCurrDst(198033)
updateCurrDst(198113)
updateCurrDst(198266)
updateCurrDst(198270)
updateCurrDst(198306)
updateCurrDst(198460)
updateCurrDst(198488)
updateCurrDst(198630)
updateCurrDst(199221)
updateCurrDst(199280)
updateCurrDst(199397)
updateCurrDst(199691)
Heartbeat CPU 0 instructions: 82000001 cycles: 99850157 heartbeat IPC: 0.329923 cumulative IPC: 0.330145 (Simulation time: 0 hr 9 min 33 sec) 
updateCurrDst(199979)
updateCurrDst(200008)
updateCurrDst(200151)
updateCurrDst(200259)
updateCurrDst(200268)
updateCurrDst(200271)
updateCurrDst(200343)
updateCurrDst(200506)
updateCurrDst(200675)
updateCurrDst(200760)
updateCurrDst(200772)
updateCurrDst(200806)
updateCurrDst(200858)
updateCurrDst(200904)
updateCurrDst(201045)
updateCurrDst(201046)
updateCurrDst(201123)
updateCurrDst(201235)
updateCurrDst(201330)
updateCurrDst(201345)
updateCurrDst(201369)
updateCurrDst(201385)
updateCurrDst(201465)
updateCurrDst(201505)
updateCurrDst(201525)
updateCurrDst(201546)
updateCurrDst(201592)
updateCurrDst(201639)
updateCurrDst(201647)
updateCurrDst(201888)
updateCurrDst(201901)
updateCurrDst(201978)
updateCurrDst(202075)
updateCurrDst(202095)
updateCurrDst(202107)
updateCurrDst(202217)
updateCurrDst(202233)
updateCurrDst(202320)
Heartbeat CPU 0 instructions: 83000000 cycles: 102865464 heartbeat IPC: 0.331641 cumulative IPC: 0.330198 (Simulation time: 0 hr 9 min 41 sec) 
updateCurrDst(202346)
updateCurrDst(202441)
updateCurrDst(202457)
updateCurrDst(202689)
updateCurrDst(202695)
updateCurrDst(202749)
updateCurrDst(202813)
updateCurrDst(202911)
updateCurrDst(202920)
updateCurrDst(202942)
updateCurrDst(203013)
updateCurrDst(203177)
updateCurrDst(203222)
updateCurrDst(203259)
updateCurrDst(203300)
updateCurrDst(203421)
updateCurrDst(203516)
updateCurrDst(203828)
updateCurrDst(203901)
updateCurrDst(203932)
updateCurrDst(204075)
updateCurrDst(204146)
updateCurrDst(204219)
updateCurrDst(204312)
updateCurrDst(204320)
updateCurrDst(204430)
updateCurrDst(204446)
updateCurrDst(204516)
updateCurrDst(204715)
updateCurrDst(204777)
updateCurrDst(204782)
updateCurrDst(204795)
Heartbeat CPU 0 instructions: 84000003 cycles: 105913136 heartbeat IPC: 0.32812 cumulative IPC: 0.330126 (Simulation time: 0 hr 9 min 47 sec) 
updateCurrDst(204958)
updateCurrDst(204967)
updateCurrDst(205155)
updateCurrDst(205211)
updateCurrDst(205249)
updateCurrDst(205319)
updateCurrDst(205363)
updateCurrDst(205403)
updateCurrDst(205406)
updateCurrDst(205446)
updateCurrDst(205759)
updateCurrDst(205818)
updateCurrDst(205957)
updateCurrDst(205962)
updateCurrDst(206032)
updateCurrDst(206306)
updateCurrDst(206362)
updateCurrDst(206403)
updateCurrDst(206504)
updateCurrDst(206561)
updateCurrDst(206667)
updateCurrDst(206672)
updateCurrDst(206714)
updateCurrDst(206834)
updateCurrDst(206959)
updateCurrDst(206963)
updateCurrDst(207107)
updateCurrDst(207343)
updateCurrDst(207413)
updateCurrDst(207432)
updateCurrDst(207511)
updateCurrDst(207532)
updateCurrDst(207539)
updateCurrDst(207543)
Heartbeat CPU 0 instructions: 85000001 cycles: 108945352 heartbeat IPC: 0.329791 cumulative IPC: 0.330115 (Simulation time: 0 hr 9 min 56 sec) 
updateCurrDst(207723)
updateCurrDst(207787)
updateCurrDst(207851)
updateCurrDst(207913)
updateCurrDst(207950)
updateCurrDst(207996)
updateCurrDst(208152)
updateCurrDst(208205)
updateCurrDst(208208)
updateCurrDst(208217)
updateCurrDst(208257)
updateCurrDst(208277)
updateCurrDst(208299)
updateCurrDst(208431)
updateCurrDst(208779)
updateCurrDst(208954)
updateCurrDst(209014)
updateCurrDst(209036)
updateCurrDst(209298)
updateCurrDst(209330)
updateCurrDst(209422)
updateCurrDst(209460)
updateCurrDst(209487)
updateCurrDst(209494)
updateCurrDst(209543)
updateCurrDst(209640)
updateCurrDst(209655)
updateCurrDst(209789)
updateCurrDst(209897)
Heartbeat CPU 0 instructions: 86000000 cycles: 111965743 heartbeat IPC: 0.331083 cumulative IPC: 0.330146 (Simulation time: 0 hr 10 min 4 sec) 
updateCurrDst(210612)
updateCurrDst(210672)
updateCurrDst(210712)
updateCurrDst(210787)
updateCurrDst(210865)
updateCurrDst(210989)
updateCurrDst(211302)
updateCurrDst(211375)
updateCurrDst(211515)
updateCurrDst(211587)
updateCurrDst(211659)
updateCurrDst(211693)
updateCurrDst(211950)
updateCurrDst(211963)
updateCurrDst(211981)
updateCurrDst(212022)
updateCurrDst(212146)
updateCurrDst(212176)
updateCurrDst(212268)
updateCurrDst(212304)
updateCurrDst(212398)
updateCurrDst(212427)
updateCurrDst(212445)
updateCurrDst(212448)
updateCurrDst(212584)
updateCurrDst(212593)
Heartbeat CPU 0 instructions: 87000001 cycles: 115012175 heartbeat IPC: 0.328253 cumulative IPC: 0.330086 (Simulation time: 0 hr 10 min 14 sec) 
updateCurrDst(212831)
updateCurrDst(212922)
updateCurrDst(212972)
updateCurrDst(212975)
updateCurrDst(213008)
updateCurrDst(213024)
updateCurrDst(213196)
updateCurrDst(213302)
updateCurrDst(213565)
updateCurrDst(213626)
updateCurrDst(213632)
updateCurrDst(213867)
updateCurrDst(214280)
updateCurrDst(214287)
updateCurrDst(214290)
updateCurrDst(214324)
updateCurrDst(214466)
updateCurrDst(214492)
updateCurrDst(214514)
updateCurrDst(214667)
updateCurrDst(214669)
updateCurrDst(214682)
updateCurrDst(214770)
updateCurrDst(214784)
updateCurrDst(214802)
updateCurrDst(214825)
updateCurrDst(214910)
updateCurrDst(215058)
updateCurrDst(215089)
updateCurrDst(215136)
updateCurrDst(215168)
updateCurrDst(215285)
Heartbeat CPU 0 instructions: 88000000 cycles: 118031807 heartbeat IPC: 0.331166 cumulative IPC: 0.330119 (Simulation time: 0 hr 10 min 20 sec) 
updateCurrDst(215418)
updateCurrDst(215568)
updateCurrDst(215573)
updateCurrDst(215616)
updateCurrDst(215727)
updateCurrDst(215919)
updateCurrDst(215926)
updateCurrDst(216144)
updateCurrDst(216195)
updateCurrDst(216227)
updateCurrDst(216419)
updateCurrDst(216548)
updateCurrDst(216650)
updateCurrDst(216737)
updateCurrDst(216802)
updateCurrDst(216893)
updateCurrDst(216955)
updateCurrDst(216976)
updateCurrDst(217015)
updateCurrDst(217162)
updateCurrDst(217242)
updateCurrDst(217447)
updateCurrDst(217556)
updateCurrDst(217788)
updateCurrDst(217896)
updateCurrDst(217985)
Heartbeat CPU 0 instructions: 89000001 cycles: 121059334 heartbeat IPC: 0.330303 cumulative IPC: 0.330124 (Simulation time: 0 hr 10 min 31 sec) 
updateCurrDst(218076)
updateCurrDst(218126)
updateCurrDst(218158)
updateCurrDst(218186)
updateCurrDst(218313)
updateCurrDst(218317)
updateCurrDst(218409)
updateCurrDst(218552)
updateCurrDst(218600)
updateCurrDst(218654)
updateCurrDst(218678)
updateCurrDst(218958)
updateCurrDst(219175)
updateCurrDst(219279)
updateCurrDst(219338)
updateCurrDst(219453)
updateCurrDst(219464)
updateCurrDst(219524)
updateCurrDst(219562)
updateCurrDst(219622)
updateCurrDst(219630)
updateCurrDst(219785)
updateCurrDst(219945)
updateCurrDst(220158)
updateCurrDst(220297)
updateCurrDst(220435)
updateCurrDst(220460)
updateCurrDst(220578)
Heartbeat CPU 0 instructions: 90000001 cycles: 124081255 heartbeat IPC: 0.330915 cumulative IPC: 0.330147 (Simulation time: 0 hr 10 min 38 sec) 
updateCurrDst(220640)
updateCurrDst(220750)
updateCurrDst(220808)
updateCurrDst(220834)
updateCurrDst(221083)
updateCurrDst(221089)
updateCurrDst(221127)
updateCurrDst(221197)
updateCurrDst(221531)
updateCurrDst(221663)
updateCurrDst(222110)
updateCurrDst(222178)
updateCurrDst(222237)
updateCurrDst(222546)
updateCurrDst(222793)
updateCurrDst(222813)
updateCurrDst(222951)
updateCurrDst(223003)
updateCurrDst(223104)
Heartbeat CPU 0 instructions: 91000003 cycles: 127106355 heartbeat IPC: 0.330568 cumulative IPC: 0.330159 (Simulation time: 0 hr 10 min 47 sec) 
updateCurrDst(223219)
updateCurrDst(223231)
updateCurrDst(223372)
updateCurrDst(223406)
updateCurrDst(223448)
updateCurrDst(223499)
updateCurrDst(223888)
updateCurrDst(223893)
updateCurrDst(224346)
updateCurrDst(224375)
updateCurrDst(224401)
updateCurrDst(224901)
updateCurrDst(224929)
updateCurrDst(224964)
updateCurrDst(225158)
updateCurrDst(225215)
updateCurrDst(225525)
updateCurrDst(225639)
updateCurrDst(225683)
Heartbeat CPU 0 instructions: 92000000 cycles: 130138659 heartbeat IPC: 0.329781 cumulative IPC: 0.330148 (Simulation time: 0 hr 10 min 54 sec) 
updateCurrDst(225933)
updateCurrDst(225959)
updateCurrDst(226015)
updateCurrDst(226119)
updateCurrDst(226121)
updateCurrDst(226484)
updateCurrDst(226501)
updateCurrDst(226505)
updateCurrDst(226545)
updateCurrDst(226575)
updateCurrDst(226712)
updateCurrDst(226826)
updateCurrDst(226864)
updateCurrDst(226942)
updateCurrDst(227141)
updateCurrDst(227176)
updateCurrDst(227179)
updateCurrDst(227384)
updateCurrDst(227386)
updateCurrDst(227499)
updateCurrDst(227617)
updateCurrDst(227642)
updateCurrDst(227732)
updateCurrDst(227835)
updateCurrDst(227910)
updateCurrDst(227924)
updateCurrDst(227939)
updateCurrDst(227974)
updateCurrDst(228043)
updateCurrDst(228080)
updateCurrDst(228100)
Heartbeat CPU 0 instructions: 93000000 cycles: 133155025 heartbeat IPC: 0.331525 cumulative IPC: 0.330184 (Simulation time: 0 hr 11 min 2 sec) 
updateCurrDst(228361)
updateCurrDst(228426)
updateCurrDst(228462)
updateCurrDst(228513)
updateCurrDst(228702)
updateCurrDst(228915)
updateCurrDst(228956)
updateCurrDst(229074)
updateCurrDst(229113)
updateCurrDst(229156)
updateCurrDst(229187)
updateCurrDst(229221)
updateCurrDst(229252)
updateCurrDst(229285)
updateCurrDst(229377)
updateCurrDst(229618)
updateCurrDst(229808)
updateCurrDst(230376)
updateCurrDst(230415)
updateCurrDst(230544)
updateCurrDst(230590)
updateCurrDst(230614)
updateCurrDst(230649)
updateCurrDst(230731)
updateCurrDst(230800)
updateCurrDst(230900)
updateCurrDst(230919)
Heartbeat CPU 0 instructions: 94000003 cycles: 136209047 heartbeat IPC: 0.327438 cumulative IPC: 0.330113 (Simulation time: 0 hr 11 min 10 sec) 
updateCurrDst(230958)
updateCurrDst(230966)
updateCurrDst(231005)
updateCurrDst(231200)
updateCurrDst(231317)
updateCurrDst(231572)
updateCurrDst(231609)
updateCurrDst(231886)
updateCurrDst(231910)
updateCurrDst(231965)
updateCurrDst(231971)
updateCurrDst(232014)
updateCurrDst(232048)
updateCurrDst(232065)
updateCurrDst(232076)
updateCurrDst(232212)
updateCurrDst(232238)
updateCurrDst(232315)
updateCurrDst(232355)
updateCurrDst(232387)
updateCurrDst(232405)
updateCurrDst(232459)
updateCurrDst(232498)
updateCurrDst(232625)
updateCurrDst(232627)
updateCurrDst(232672)
updateCurrDst(232688)
updateCurrDst(232721)
updateCurrDst(232812)
updateCurrDst(232831)
updateCurrDst(232898)
updateCurrDst(233079)
updateCurrDst(233349)
updateCurrDst(233381)
updateCurrDst(233511)
Heartbeat CPU 0 instructions: 95000003 cycles: 139226878 heartbeat IPC: 0.331364 cumulative IPC: 0.330145 (Simulation time: 0 hr 11 min 18 sec) 
updateCurrDst(233649)
updateCurrDst(234030)
updateCurrDst(234400)
updateCurrDst(234454)
updateCurrDst(234461)
updateCurrDst(234731)
updateCurrDst(235018)
updateCurrDst(235099)
updateCurrDst(235211)
updateCurrDst(235225)
updateCurrDst(235305)
updateCurrDst(235603)
updateCurrDst(235747)
updateCurrDst(235811)
updateCurrDst(235899)
updateCurrDst(236087)
updateCurrDst(236097)
updateCurrDst(236101)
Heartbeat CPU 0 instructions: 96000003 cycles: 142254179 heartbeat IPC: 0.330327 cumulative IPC: 0.330149 (Simulation time: 0 hr 11 min 28 sec) 
updateCurrDst(236167)
updateCurrDst(236169)
updateCurrDst(236315)
updateCurrDst(236422)
updateCurrDst(236451)
updateCurrDst(236636)
updateCurrDst(236681)
updateCurrDst(236788)
updateCurrDst(236893)
updateCurrDst(236916)
updateCurrDst(237003)
updateCurrDst(237210)
updateCurrDst(237395)
updateCurrDst(237801)
updateCurrDst(237914)
updateCurrDst(238028)
updateCurrDst(238171)
updateCurrDst(238284)
updateCurrDst(238380)
updateCurrDst(238460)
updateCurrDst(238534)
updateCurrDst(238611)
updateCurrDst(238702)
updateCurrDst(238712)
updateCurrDst(238739)
Heartbeat CPU 0 instructions: 97000000 cycles: 145339189 heartbeat IPC: 0.324147 cumulative IPC: 0.330003 (Simulation time: 0 hr 11 min 35 sec) 
updateCurrDst(238975)
updateCurrDst(238990)
updateCurrDst(239016)
updateCurrDst(239042)
updateCurrDst(239066)
updateCurrDst(239092)
updateCurrDst(239116)
updateCurrDst(239159)
updateCurrDst(239280)
updateCurrDst(239333)
updateCurrDst(239342)
updateCurrDst(239363)
updateCurrDst(239394)
updateCurrDst(239472)
updateCurrDst(239603)
updateCurrDst(239655)
updateCurrDst(239681)
updateCurrDst(239719)
updateCurrDst(239836)
updateCurrDst(239849)
updateCurrDst(239899)
updateCurrDst(240012)
updateCurrDst(240037)
updateCurrDst(240066)
updateCurrDst(240161)
updateCurrDst(240337)
updateCurrDst(240478)
updateCurrDst(240549)
updateCurrDst(240594)
updateCurrDst(240729)
updateCurrDst(240740)
updateCurrDst(240906)
updateCurrDst(241000)
updateCurrDst(241022)
updateCurrDst(241133)
updateCurrDst(241279)
Heartbeat CPU 0 instructions: 98000000 cycles: 148417381 heartbeat IPC: 0.324866 cumulative IPC: 0.329882 (Simulation time: 0 hr 11 min 45 sec) 
updateCurrDst(241378)
updateCurrDst(241419)
updateCurrDst(241441)
updateCurrDst(241468)
updateCurrDst(241579)
updateCurrDst(241594)
updateCurrDst(241600)
updateCurrDst(241649)
updateCurrDst(241673)
updateCurrDst(241792)
updateCurrDst(241807)
updateCurrDst(241836)
updateCurrDst(241862)
updateCurrDst(241894)
updateCurrDst(241906)
updateCurrDst(241954)
updateCurrDst(242266)
updateCurrDst(242274)
updateCurrDst(242343)
updateCurrDst(242403)
updateCurrDst(242624)
updateCurrDst(242751)
updateCurrDst(242821)
updateCurrDst(242981)
updateCurrDst(243146)
updateCurrDst(243270)
updateCurrDst(243431)
updateCurrDst(243432)
updateCurrDst(243650)
Heartbeat CPU 0 instructions: 99000000 cycles: 151484162 heartbeat IPC: 0.326075 cumulative IPC: 0.329795 (Simulation time: 0 hr 11 min 53 sec) 
updateCurrDst(243975)
updateCurrDst(244004)
updateCurrDst(244005)
updateCurrDst(244008)
updateCurrDst(244352)
updateCurrDst(244399)
updateCurrDst(244408)
updateCurrDst(244540)
updateCurrDst(244569)
updateCurrDst(244590)
updateCurrDst(244674)
updateCurrDst(244990)
updateCurrDst(244995)
updateCurrDst(245357)
updateCurrDst(245413)
updateCurrDst(245481)
updateCurrDst(245631)
updateCurrDst(245745)
updateCurrDst(245833)
updateCurrDst(245843)
updateCurrDst(245934)
updateCurrDst(245938)
updateCurrDst(245952)
updateCurrDst(245993)
updateCurrDst(246025)
updateCurrDst(246094)
updateCurrDst(246224)
updateCurrDst(246247)
updateCurrDst(246303)
updateCurrDst(246399)
Heartbeat CPU 0 instructions: 100000001 cycles: 154548820 heartbeat IPC: 0.326301 cumulative IPC: 0.329716 (Simulation time: 0 hr 12 min 3 sec) 
updateCurrDst(246706)
updateCurrDst(246721)
updateCurrDst(246801)
updateCurrDst(247062)
updateCurrDst(247077)
updateCurrDst(247081)
updateCurrDst(247135)
updateCurrDst(247388)
updateCurrDst(247444)
updateCurrDst(247473)
updateCurrDst(247489)
updateCurrDst(247576)
updateCurrDst(247705)
updateCurrDst(247788)
updateCurrDst(247793)
updateCurrDst(247840)
updateCurrDst(247896)
updateCurrDst(247924)
updateCurrDst(248008)
updateCurrDst(248049)
updateCurrDst(248231)
updateCurrDst(248234)
updateCurrDst(248244)
updateCurrDst(248273)
updateCurrDst(248379)
updateCurrDst(248452)
updateCurrDst(248590)
updateCurrDst(248674)
updateCurrDst(248860)
updateCurrDst(248862)
updateCurrDst(248945)
updateCurrDst(248948)
updateCurrDst(249105)
Heartbeat CPU 0 instructions: 101000001 cycles: 157625159 heartbeat IPC: 0.325062 cumulative IPC: 0.329614 (Simulation time: 0 hr 12 min 11 sec) 
updateCurrDst(249161)
updateCurrDst(249191)
updateCurrDst(249222)
updateCurrDst(249246)
updateCurrDst(249488)
updateCurrDst(249584)
updateCurrDst(249735)
updateCurrDst(249738)
updateCurrDst(250126)
updateCurrDst(250275)
updateCurrDst(250343)
updateCurrDst(250356)
updateCurrDst(250531)
updateCurrDst(250626)
updateCurrDst(250824)
updateCurrDst(250865)
updateCurrDst(250973)
updateCurrDst(251062)
updateCurrDst(251472)
updateCurrDst(251584)
Heartbeat CPU 0 instructions: 102000002 cycles: 160695923 heartbeat IPC: 0.325652 cumulative IPC: 0.329528 (Simulation time: 0 hr 12 min 19 sec) 
updateCurrDst(251776)
updateCurrDst(251893)
updateCurrDst(251993)
updateCurrDst(252120)
updateCurrDst(252209)
updateCurrDst(252454)
updateCurrDst(252542)
updateCurrDst(252592)
updateCurrDst(252959)
updateCurrDst(253016)
updateCurrDst(253039)
updateCurrDst(253070)
updateCurrDst(253114)
updateCurrDst(253187)
updateCurrDst(253286)
updateCurrDst(253433)
updateCurrDst(253596)
updateCurrDst(253752)
updateCurrDst(253823)
updateCurrDst(254040)
updateCurrDst(254118)
updateCurrDst(254185)
updateCurrDst(254188)
updateCurrDst(254266)
Heartbeat CPU 0 instructions: 103000000 cycles: 163766734 heartbeat IPC: 0.325646 cumulative IPC: 0.329446 (Simulation time: 0 hr 12 min 26 sec) 
updateCurrDst(254320)
updateCurrDst(254321)
updateCurrDst(254568)
updateCurrDst(254675)
updateCurrDst(254685)
updateCurrDst(254836)
updateCurrDst(255016)
updateCurrDst(255040)
updateCurrDst(255102)
updateCurrDst(255107)
updateCurrDst(255193)
updateCurrDst(255225)
updateCurrDst(255397)
updateCurrDst(255435)
updateCurrDst(255461)
updateCurrDst(255615)
updateCurrDst(255875)
updateCurrDst(255971)
updateCurrDst(256140)
updateCurrDst(256175)
updateCurrDst(256181)
updateCurrDst(256215)
updateCurrDst(256285)
updateCurrDst(256386)
updateCurrDst(256456)
updateCurrDst(256488)
updateCurrDst(256502)
Heartbeat CPU 0 instructions: 104000000 cycles: 166837909 heartbeat IPC: 0.325608 cumulative IPC: 0.329367 (Simulation time: 0 hr 12 min 33 sec) 
updateCurrDst(257030)
updateCurrDst(257213)
updateCurrDst(257261)
updateCurrDst(257575)
updateCurrDst(257902)
updateCurrDst(257920)
updateCurrDst(257935)
updateCurrDst(258062)
updateCurrDst(258130)
updateCurrDst(258142)
updateCurrDst(258210)
updateCurrDst(258346)
updateCurrDst(258584)
updateCurrDst(258969)
updateCurrDst(259051)
updateCurrDst(259174)
updateCurrDst(259231)
updateCurrDst(259290)
updateCurrDst(259298)
updateCurrDst(259488)
updateCurrDst(259505)
Heartbeat CPU 0 instructions: 105000001 cycles: 169916730 heartbeat IPC: 0.3248 cumulative IPC: 0.329275 (Simulation time: 0 hr 12 min 40 sec) 
updateCurrDst(259536)
updateCurrDst(259606)
updateCurrDst(259715)
updateCurrDst(259811)
updateCurrDst(259821)
updateCurrDst(259828)
updateCurrDst(259830)
updateCurrDst(259849)
updateCurrDst(259956)
updateCurrDst(259982)
updateCurrDst(260045)
updateCurrDst(260053)
updateCurrDst(260185)
updateCurrDst(260281)
updateCurrDst(260347)
updateCurrDst(260359)
updateCurrDst(260525)
updateCurrDst(260587)
updateCurrDst(260765)
updateCurrDst(260769)
updateCurrDst(260816)
updateCurrDst(260817)
updateCurrDst(261057)
updateCurrDst(261068)
updateCurrDst(261084)
updateCurrDst(261145)
updateCurrDst(261234)
updateCurrDst(261243)
updateCurrDst(261244)
updateCurrDst(261453)
updateCurrDst(261491)
updateCurrDst(261722)
updateCurrDst(261818)
Heartbeat CPU 0 instructions: 106000000 cycles: 172989667 heartbeat IPC: 0.325421 cumulative IPC: 0.329198 (Simulation time: 0 hr 12 min 48 sec) 
*** Reached end of trace for Core: 0 Repeating trace: tracer/pull_u18_k2.xzafter: 106015477
PIN_registerGraphs(random_u18_k2.sg,1)
Graphh Number of Nodes: 262144
Heartbeat CPU 0 instructions: 107000001 cycles: 176044572 heartbeat IPC: 0.327343 cumulative IPC: 0.329162 (Simulation time: 0 hr 12 min 57 sec) 
Heartbeat CPU 0 instructions: 108000001 cycles: 177544576 heartbeat IPC: 0.666665 cumulative IPC: 0.332337 (Simulation time: 0 hr 13 min 2 sec) 
Heartbeat CPU 0 instructions: 109000001 cycles: 179044572 heartbeat IPC: 0.666668 cumulative IPC: 0.335452 (Simulation time: 0 hr 13 min 7 sec) 
Heartbeat CPU 0 instructions: 110000000 cycles: 180546568 heartbeat IPC: 0.66578 cumulative IPC: 0.338506 (Simulation time: 0 hr 13 min 11 sec) 
Finished CPU 0 instructions: 55000000 cycles: 162478757 cumulative IPC: 0.338506 (Simulation time: 0 hr 13 min 11 sec) 

ChampSim completed all CPUs

Region of Interest Statistics

CPU 0 cumulative IPC: 0.338506 instructions: 55000000 cycles: 162478757

Total ROB STALLS:                   20218500
STLB MISS ROB STALLS:                    987
L1D  LOAD MISS ROB STALLS:            569132  Translation MISS ROB STALLS:             0
L2C  LOAD MISS ROB STALLS:            360573  Translation MISS ROB STALLS:             0
LLC  LOAD MISS ROB STALLS:             61612  Translation MISS ROB STALLS:             0

ITLB TOTAL     ACCESS:           7820463  HIT:    7820430  MISS:         33  HIT %:    99.9996  MISS %: 0.00042197   MPKI: 0.0006
ITLB LOAD TRANSLATION ACCESS:    7820463  HIT:    7820430  MISS:         33  HIT %:    99.9996  MISS %: 0.00042197   MPKI: 0.0006
ITLB AVERAGE MISS LATENCY:        215.03 cycles
ITLB RQ ACCESS:     8626019	FORWARD:           0	MERGED:       805555	TO_CACHE:    7820464

DTLB TOTAL     ACCESS:          16346862  HIT:   15937639  MISS:     409223  HIT %:    97.4966  MISS %:    2.50337   MPKI: 7.44042
DTLB LOAD TRANSLATION ACCESS:   16346862  HIT:   15937639  MISS:     409223  HIT %:    97.4966  MISS %:    2.50337   MPKI: 7.44042
DTLB AVERAGE MISS LATENCY:       9.59558 cycles
DTLB RQ ACCESS:    22844384	FORWARD:           0	MERGED:      6495903	TO_CACHE:   16348481

STLB TOTAL     ACCESS:            409256  HIT:     408111  MISS:       1145  HIT %:    99.7202  MISS %:   0.279776   MPKI: 0.0208182
STLB LOAD TRANSLATION ACCESS:     409256  HIT:     408111  MISS:       1145  HIT %:    99.7202  MISS %:   0.279776   MPKI: 0.0208182
STLB AVERAGE MISS LATENCY:       218.799 cycles
STLB RQ ACCESS:      409256	FORWARD:           0	MERGED:            0	TO_CACHE:     409256

PSCL5 TOTAL     ACCESS:              1145  HIT:       1145  MISS:          0  HIT %:        100  MISS %:          0   MPKI: 0
PSCL5 LOAD TRANSLATION ACCESS:       1145  HIT:       1145  MISS:          0  HIT %:        100  MISS %:          0   MPKI: 0

PSCL4 TOTAL     ACCESS:              1145  HIT:       1145  MISS:          0  HIT %:        100  MISS %:          0   MPKI: 0
PSCL4 LOAD TRANSLATION ACCESS:       1145  HIT:       1145  MISS:          0  HIT %:        100  MISS %:          0   MPKI: 0

PSCL3 TOTAL     ACCESS:              1145  HIT:       1145  MISS:          0  HIT %:        100  MISS %:          0   MPKI: 0
PSCL3 LOAD TRANSLATION ACCESS:       1145  HIT:       1145  MISS:          0  HIT %:        100  MISS %:          0   MPKI: 0

PSCL2 TOTAL     ACCESS:              1145  HIT:       1145  MISS:          0  HIT %:        100  MISS %:          0   MPKI: 0
PSCL2 LOAD TRANSLATION ACCESS:       1145  HIT:       1145  MISS:          0  HIT %:        100  MISS %:          0   MPKI: 0

L1D TOTAL     ACCESS:          22667921  HIT:   22071109  MISS:     596812  HIT %:    97.3672  MISS %:    2.63285   MPKI: 10.8511  USED:      83043  UNUSED:     513769
L1D LOAD      ACCESS:          10006682  HIT:    9437439  MISS:     569243  HIT %:    94.3114  MISS %:    5.68863   MPKI: 10.3499  USED:      82996  UNUSED:     487014
L1D RFO       ACCESS:          12661239  HIT:   12633670  MISS:      27569  HIT %:    99.7823  MISS %:   0.217743   MPKI: 0.501255
L1D PTL1 TRANSLATION ACCESS:          0  HIT:          0  MISS:          0  HIT %:       -nan  MISS %:       -nan   MPKI: 0
L1D PTL2 TRANSLATION ACCESS:          0  HIT:          0  MISS:          0  HIT %:       -nan  MISS %:       -nan   MPKI: 0
L1D PTL3 TRANSLATION ACCESS:          0  HIT:          0  MISS:          0  HIT %:       -nan  MISS %:       -nan   MPKI: 0
L1D PTL4 TRANSLATION ACCESS:          0  HIT:          0  MISS:          0  HIT %:       -nan  MISS %:       -nan   MPKI: 0
L1D PTL5 TRANSLATION ACCESS:          0  HIT:          0  MISS:          0  HIT %:       -nan  MISS %:       -nan   MPKI: 0
L1D TOTAL EVICTIONS:             596812  TRANSLATION EVICTIONS:          0  TRANSLATION EVICTING TRANSALTION:          0  TRANSLATION EVICTING LOAD:          0  LOAD EVICTING TRANSALTION:          0  LOAD EVICTING LOAD:      568981
L1D AVERAGE MISS LATENCY:        49.155 cycles  AVERAGE LOAD MISS LATENCY:       46.9304 cycles  AVERAGE LOAD TRANSLATION MISS LATENCY:          -nan cycles
L1D RQ ACCESS:    13547770	FORWARD:           0	MERGED:      2294624	TO_CACHE:   10006734
L1D WQ ACCESS:    13114527	FORWARD:     1246412	MERGED:       276877	TO_CACHE:   12837650

L1I TOTAL     ACCESS:           8626005  HIT:    8625810  MISS:        195  HIT %:    99.9977  MISS %: 0.00226061   MPKI: 0.00354545
L1I LOAD      ACCESS:           8626005  HIT:    8625810  MISS:        195  HIT %:    99.9977  MISS %: 0.00226061   MPKI: 0.00354545
L1I AVERAGE MISS LATENCY:       191.672 cycles
L1I RQ ACCESS:    13444379	FORWARD:           0	MERGED:      4818360	TO_CACHE:    8626019

L2C TOTAL     ACCESS:            632195  HIT:     243905  MISS:     388290  HIT %:    38.5807  MISS %:    61.4193   MPKI: 7.05982  USED:     126014  UNUSED:     262276
L2C LOAD      ACCESS:            569438  HIT:     208586  MISS:     360852  HIT %:    36.6302  MISS %:    63.3698   MPKI: 6.56095  USED:     126001  UNUSED:     243016
L2C RFO       ACCESS:             27569  HIT:        139  MISS:      27430  HIT %:   0.504189  MISS %:    99.4958   MPKI: 0.498727
L2C WRITEBACK ACCESS:             35188  HIT:      35180  MISS:          8  HIT %:    99.9773  MISS %:   0.022735   MPKI: 0.000145455
L2C PTL1 TRANSLATION ACCESS:          0  HIT:          0  MISS:          0  HIT %:       -nan  MISS %:       -nan   MPKI: 0
L2C PTL2 TRANSLATION ACCESS:          0  HIT:          0  MISS:          0  HIT %:       -nan  MISS %:       -nan   MPKI: 0
L2C PTL3 TRANSLATION ACCESS:          0  HIT:          0  MISS:          0  HIT %:       -nan  MISS %:       -nan   MPKI: 0
L2C PTL4 TRANSLATION ACCESS:          0  HIT:          0  MISS:          0  HIT %:       -nan  MISS %:       -nan   MPKI: 0
L2C PTL5 TRANSLATION ACCESS:          0  HIT:          0  MISS:          0  HIT %:       -nan  MISS %:       -nan   MPKI: 0
L2C TOTAL EVICTIONS:             388290  TRANSLATION EVICTIONS:          0  TRANSLATION EVICTING TRANSALTION:          0  TRANSLATION EVICTING LOAD:          0  LOAD EVICTING TRANSALTION:          0  LOAD EVICTING LOAD:      360812
L2C AVERAGE MISS LATENCY:       52.5863 cycles  AVERAGE LOAD MISS LATENCY:       50.4661 cycles  AVERAGE LOAD TRANSLATION MISS LATENCY:          -nan cycles
L2C RQ ACCESS:      597008	FORWARD:           0	MERGED:            0	TO_CACHE:     597008
L2C WQ ACCESS:       35188	FORWARD:           0	MERGED:            0	TO_CACHE:      35188

LLC TOTAL     ACCESS:            416175  HIT:     346313  MISS:      69862  HIT %:    83.2133  MISS %:    16.7867   MPKI: 1.27022  USED:        141  UNUSED:      69721
LLC LOAD      ACCESS:            360852  HIT:     298970  MISS:      61882  HIT %:    82.8511  MISS %:    17.1489   MPKI: 1.12513  USED:         81  UNUSED:      69684
LLC RFO       ACCESS:             27430  HIT:      19457  MISS:       7973  HIT %:    70.9333  MISS %:    29.0667   MPKI: 0.144964
LLC WRITEBACK ACCESS:             27893  HIT:      27886  MISS:          7  HIT %:    99.9749  MISS %:  0.0250959   MPKI: 0.000127273
LLC PTL1 TRANSLATION ACCESS:          0  HIT:          0  MISS:          0  HIT %:       -nan  MISS %:       -nan   MPKI: 0
LLC PTL2 TRANSLATION ACCESS:          0  HIT:          0  MISS:          0  HIT %:       -nan  MISS %:       -nan   MPKI: 0
LLC PTL3 TRANSLATION ACCESS:          0  HIT:          0  MISS:          0  HIT %:       -nan  MISS %:       -nan   MPKI: 0
LLC PTL4 TRANSLATION ACCESS:          0  HIT:          0  MISS:          0  HIT %:       -nan  MISS %:       -nan   MPKI: 0
LLC PTL5 TRANSLATION ACCESS:          0  HIT:          0  MISS:          0  HIT %:       -nan  MISS %:       -nan   MPKI: 0
LLC TOTAL EVICTIONS:              69862  TRANSLATION EVICTIONS:          0  TRANSLATION EVICTING TRANSALTION:          0  TRANSLATION EVICTING LOAD:          0  LOAD EVICTING TRANSALTION:          0  LOAD EVICTING LOAD:       61827
LLC AVERAGE MISS LATENCY:       125.534 cycles  AVERAGE LOAD MISS LATENCY:        119.34 cycles  AVERAGE LOAD TRANSLATION MISS LATENCY:          -nan cycles
LLC RQ ACCESS:      388283	FORWARD:           0	MERGED:            0	TO_CACHE:     388283
LLC WQ ACCESS:       27893	FORWARD:           0	MERGED:            0	TO_CACHE:      27893


RAW hits: 10227400
Loads Generated: 23775172
Loads sent to L1D: 13547770
Stores Generated: 13114530
Stores sent to L1D: 13114527
Major fault: 0 Minor fault: 2274
Allocated PAGES: 2274
IRREG DATA L1D ACCESS: 1250917
L2C ACCESSES: 1021326
L2C MISSES: 610739

DRAM Statistics
 CHANNEL 0
 RQ ROW_BUFFER_HIT:      31624  ROW_BUFFER_MISS:      39376
 DBUS_CONGESTED:          0
 WQ ROW_BUFFER_HIT:       1286  ROW_BUFFER_MISS:       9042  FULL:          0

 AVG_CONGESTED_CYCLE: -

CPU 0 Branch Prediction Accuracy: 98.1782% MPKI: 2.35525 Average ROB Occupancy at Mispredict: 17.6928
Branch types
NOT_BRANCH: 47889171 87.0712%
BRANCH_DIRECT_JUMP: 0 0%
BRANCH_INDIRECT: 1076201 1.95673%
BRANCH_CONDITIONAL: 0 0%
BRANCH_DIRECT_CALL: 132536 0.240975%
BRANCH_INDIRECT_CALL: 2146666 3.90303%
BRANCH_RETURN: 2279197 4.14399%
BRANCH_OTHER: 1475880 2.68342%

DRAM PAGES: 1048576
Allocated PAGES: 2274
