
*** ChampSim Multicore Out-of-Order Simulator ***

Warmup Instructions: 23000000
Simulation Instructions: 23000000
Number of CPUs: 1
LLC sets: 2048
LLC ways: 16
Off-chip DRAM Size: 4096 MB Channels: 1 Width: 64-bit Data Rate: 6400 MT/s
CPU 0 runs ./tracer/pull_u16_k5.xz
.xz
BTB has LRU replacement policy
ITLB has LRU replacement policy
DTLB has LRU replacement policy
STLB has LRU replacement policy
L1I has LRU replacement policy
L1D has LRU replacement policy
L2C has LRU replacement policy
Initialize DRRIP state for LLC
Heartbeat CPU 0 instructions: 1000000 cycles: 350520 heartbeat IPC: 2.8529 cumulative IPC: 2.8529 (Simulation time: 0 hr 0 min 3 sec) 
PIN_registerGraphs(random_u16_k5.sg,1)
Graphh Number of Nodes: 65536
Heartbeat CPU 0 instructions: 2000000 cycles: 690866 heartbeat IPC: 2.93819 cumulative IPC: 2.89492 (Simulation time: 0 hr 0 min 5 sec) 
PIN_updateRegBaseBound( 94227135865040, 94227136127184)
updateCurrDst(11)
updateCurrDst(87)
updateCurrDst(215)
updateCurrDst(280)
updateCurrDst(513)
updateCurrDst(573)
updateCurrDst(672)
updateCurrDst(697)
updateCurrDst(820)
Heartbeat CPU 0 instructions: 3000002 cycles: 1011169 heartbeat IPC: 3.12205 cumulative IPC: 2.96687 (Simulation time: 0 hr 0 min 7 sec) 
updateCurrDst(862)
updateCurrDst(1004)
updateCurrDst(1293)
updateCurrDst(1374)
updateCurrDst(1445)
updateCurrDst(1472)
updateCurrDst(1563)
updateCurrDst(1816)
updateCurrDst(1880)
updateCurrDst(2164)
Heartbeat CPU 0 instructions: 4000001 cycles: 1319700 heartbeat IPC: 3.24116 cumulative IPC: 3.03099 (Simulation time: 0 hr 0 min 9 sec) 
updateCurrDst(2547)
updateCurrDst(2570)
updateCurrDst(2645)
updateCurrDst(2675)
updateCurrDst(2764)
updateCurrDst(2803)
updateCurrDst(2878)
updateCurrDst(2881)
updateCurrDst(2990)
updateCurrDst(3126)
updateCurrDst(3155)
updateCurrDst(3512)
updateCurrDst(3539)
updateCurrDst(3557)
updateCurrDst(3652)
updateCurrDst(3663)
Heartbeat CPU 0 instructions: 5000000 cycles: 1628379 heartbeat IPC: 3.23961 cumulative IPC: 3.07054 (Simulation time: 0 hr 0 min 12 sec) 
updateCurrDst(3852)
updateCurrDst(3909)
updateCurrDst(4051)
updateCurrDst(4112)
updateCurrDst(4152)
updateCurrDst(4229)
updateCurrDst(4249)
updateCurrDst(4315)
updateCurrDst(4350)
updateCurrDst(4406)
updateCurrDst(4554)
updateCurrDst(4575)
updateCurrDst(4660)
updateCurrDst(4671)
updateCurrDst(4816)
updateCurrDst(4851)
updateCurrDst(4854)
updateCurrDst(4937)
updateCurrDst(4939)
updateCurrDst(5037)
updateCurrDst(5054)
updateCurrDst(5194)
updateCurrDst(5260)
Heartbeat CPU 0 instructions: 6000003 cycles: 1936573 heartbeat IPC: 3.24472 cumulative IPC: 3.09826 (Simulation time: 0 hr 0 min 15 sec) 
updateCurrDst(5268)
updateCurrDst(5285)
updateCurrDst(5335)
updateCurrDst(5390)
updateCurrDst(5394)
updateCurrDst(5395)
updateCurrDst(5404)
updateCurrDst(5486)
updateCurrDst(5587)
updateCurrDst(5705)
updateCurrDst(5735)
updateCurrDst(5778)
updateCurrDst(5787)
updateCurrDst(5938)
updateCurrDst(5970)
updateCurrDst(5971)
updateCurrDst(6060)
updateCurrDst(6105)
updateCurrDst(6133)
updateCurrDst(6261)
updateCurrDst(6353)
updateCurrDst(6577)
Heartbeat CPU 0 instructions: 7000000 cycles: 2245371 heartbeat IPC: 3.23835 cumulative IPC: 3.11752 (Simulation time: 0 hr 0 min 18 sec) 
updateCurrDst(7182)
updateCurrDst(7204)
updateCurrDst(7347)
updateCurrDst(7372)
updateCurrDst(7446)
updateCurrDst(7449)
updateCurrDst(7861)
updateCurrDst(7874)
updateCurrDst(7885)
updateCurrDst(8215)
Heartbeat CPU 0 instructions: 8000002 cycles: 2553763 heartbeat IPC: 3.24263 cumulative IPC: 3.13263 (Simulation time: 0 hr 0 min 20 sec) 
updateCurrDst(8383)
updateCurrDst(8611)
updateCurrDst(8638)
updateCurrDst(8783)
updateCurrDst(8846)
updateCurrDst(8960)
updateCurrDst(9006)
updateCurrDst(9018)
updateCurrDst(9169)
updateCurrDst(9209)
updateCurrDst(9224)
updateCurrDst(9343)
updateCurrDst(9520)
Heartbeat CPU 0 instructions: 9000001 cycles: 2862066 heartbeat IPC: 3.24356 cumulative IPC: 3.14458 (Simulation time: 0 hr 0 min 23 sec) 
updateCurrDst(9740)
updateCurrDst(9907)
updateCurrDst(10115)
updateCurrDst(10194)
updateCurrDst(10219)
updateCurrDst(10223)
updateCurrDst(10351)
updateCurrDst(10513)
updateCurrDst(10730)
updateCurrDst(10873)
updateCurrDst(10890)
updateCurrDst(10910)
updateCurrDst(10929)
updateCurrDst(10932)
updateCurrDst(11031)
Heartbeat CPU 0 instructions: 10000001 cycles: 3170489 heartbeat IPC: 3.2423 cumulative IPC: 3.15409 (Simulation time: 0 hr 0 min 26 sec) 
updateCurrDst(11246)
updateCurrDst(11262)
updateCurrDst(11414)
updateCurrDst(11437)
updateCurrDst(11463)
updateCurrDst(11587)
updateCurrDst(11591)
updateCurrDst(11735)
updateCurrDst(11899)
updateCurrDst(12000)
updateCurrDst(12001)
updateCurrDst(12032)
updateCurrDst(12463)
updateCurrDst(12469)
Heartbeat CPU 0 instructions: 11000000 cycles: 3478799 heartbeat IPC: 3.24349 cumulative IPC: 3.16201 (Simulation time: 0 hr 0 min 28 sec) 
updateCurrDst(12696)
updateCurrDst(12879)
updateCurrDst(13107)
updateCurrDst(13121)
updateCurrDst(13158)
updateCurrDst(13223)
updateCurrDst(13367)
updateCurrDst(13471)
updateCurrDst(13559)
updateCurrDst(13705)
updateCurrDst(13944)
updateCurrDst(13999)
updateCurrDst(14036)
updateCurrDst(14093)
Heartbeat CPU 0 instructions: 12000003 cycles: 3787395 heartbeat IPC: 3.24049 cumulative IPC: 3.16841 (Simulation time: 0 hr 0 min 31 sec) 
updateCurrDst(14422)
updateCurrDst(14501)
updateCurrDst(14524)
updateCurrDst(14561)
updateCurrDst(14632)
updateCurrDst(14778)
updateCurrDst(14908)
updateCurrDst(14933)
updateCurrDst(15048)
updateCurrDst(15120)
updateCurrDst(15271)
updateCurrDst(15274)
updateCurrDst(15275)
updateCurrDst(15294)
updateCurrDst(15324)
updateCurrDst(15518)
updateCurrDst(15551)
updateCurrDst(15615)
updateCurrDst(15638)
Heartbeat CPU 0 instructions: 13000001 cycles: 4095617 heartbeat IPC: 3.24441 cumulative IPC: 3.17413 (Simulation time: 0 hr 0 min 34 sec) 
updateCurrDst(16057)
updateCurrDst(16085)
updateCurrDst(16197)
updateCurrDst(16217)
updateCurrDst(16226)
updateCurrDst(16228)
updateCurrDst(16290)
updateCurrDst(16579)
updateCurrDst(16755)
updateCurrDst(16776)
updateCurrDst(16851)
updateCurrDst(16955)
Heartbeat CPU 0 instructions: 14000000 cycles: 4404058 heartbeat IPC: 3.24211 cumulative IPC: 3.17889 (Simulation time: 0 hr 0 min 37 sec) 
updateCurrDst(17442)
updateCurrDst(17488)
updateCurrDst(17518)
updateCurrDst(17715)
updateCurrDst(18070)
updateCurrDst(18179)
updateCurrDst(18438)
updateCurrDst(18540)
Heartbeat CPU 0 instructions: 15000001 cycles: 4712317 heartbeat IPC: 3.24403 cumulative IPC: 3.18315 (Simulation time: 0 hr 0 min 39 sec) 
updateCurrDst(18651)
updateCurrDst(18695)
updateCurrDst(18737)
updateCurrDst(18782)
updateCurrDst(18931)
updateCurrDst(18964)
updateCurrDst(19231)
updateCurrDst(19299)
updateCurrDst(19381)
updateCurrDst(19432)
updateCurrDst(19509)
updateCurrDst(19539)
updateCurrDst(19629)
updateCurrDst(19654)
updateCurrDst(19680)
updateCurrDst(19739)
updateCurrDst(19987)
updateCurrDst(20026)
Heartbeat CPU 0 instructions: 16000003 cycles: 5020934 heartbeat IPC: 3.24027 cumulative IPC: 3.18666 (Simulation time: 0 hr 0 min 42 sec) 
updateCurrDst(20171)
updateCurrDst(20659)
updateCurrDst(20749)
updateCurrDst(20800)
updateCurrDst(20885)
updateCurrDst(20961)
updateCurrDst(20978)
updateCurrDst(21114)
updateCurrDst(21128)
updateCurrDst(21151)
updateCurrDst(21173)
updateCurrDst(21214)
updateCurrDst(21426)
Heartbeat CPU 0 instructions: 17000002 cycles: 5329516 heartbeat IPC: 3.24063 cumulative IPC: 3.18978 (Simulation time: 0 hr 0 min 45 sec) 
updateCurrDst(21618)
updateCurrDst(21739)
updateCurrDst(21849)
updateCurrDst(21854)
updateCurrDst(21928)
updateCurrDst(21982)
updateCurrDst(22111)
updateCurrDst(22128)
updateCurrDst(22187)
updateCurrDst(22377)
updateCurrDst(22528)
updateCurrDst(22676)
updateCurrDst(22697)
updateCurrDst(22744)
updateCurrDst(22768)
updateCurrDst(22932)
updateCurrDst(22993)
updateCurrDst(23007)
Heartbeat CPU 0 instructions: 18000000 cycles: 5637903 heartbeat IPC: 3.24267 cumulative IPC: 3.19268 (Simulation time: 0 hr 0 min 48 sec) 
updateCurrDst(23085)
updateCurrDst(23200)
updateCurrDst(23236)
updateCurrDst(23304)
updateCurrDst(23460)
updateCurrDst(23496)
updateCurrDst(23547)
updateCurrDst(23649)
updateCurrDst(23835)
updateCurrDst(23849)
updateCurrDst(23976)
updateCurrDst(24021)
updateCurrDst(24144)
updateCurrDst(24159)
updateCurrDst(24360)
updateCurrDst(24368)
Heartbeat CPU 0 instructions: 19000002 cycles: 5946205 heartbeat IPC: 3.24358 cumulative IPC: 3.19532 (Simulation time: 0 hr 0 min 51 sec) 
updateCurrDst(24719)
updateCurrDst(24736)
updateCurrDst(25081)
updateCurrDst(25458)
updateCurrDst(25473)
updateCurrDst(25521)
updateCurrDst(25634)
updateCurrDst(25696)
updateCurrDst(26049)
Heartbeat CPU 0 instructions: 20000000 cycles: 6254844 heartbeat IPC: 3.24002 cumulative IPC: 3.19752 (Simulation time: 0 hr 0 min 54 sec) 
updateCurrDst(26107)
updateCurrDst(26349)
updateCurrDst(26449)
updateCurrDst(26502)
updateCurrDst(26540)
updateCurrDst(26731)
updateCurrDst(26744)
updateCurrDst(26784)
updateCurrDst(26970)
updateCurrDst(27219)
updateCurrDst(27432)
updateCurrDst(27522)
Heartbeat CPU 0 instructions: 21000000 cycles: 6563378 heartbeat IPC: 3.24113 cumulative IPC: 3.19957 (Simulation time: 0 hr 0 min 57 sec) 
updateCurrDst(27626)
updateCurrDst(27670)
updateCurrDst(27673)
updateCurrDst(27680)
updateCurrDst(27718)
updateCurrDst(27836)
updateCurrDst(27844)
updateCurrDst(27863)
updateCurrDst(27984)
updateCurrDst(28397)
updateCurrDst(28449)
updateCurrDst(28531)
updateCurrDst(28884)
updateCurrDst(28900)
updateCurrDst(28906)
updateCurrDst(29010)
Heartbeat CPU 0 instructions: 22000000 cycles: 6871892 heartbeat IPC: 3.24134 cumulative IPC: 3.20145 (Simulation time: 0 hr 0 min 59 sec) 
updateCurrDst(29063)
updateCurrDst(29203)
updateCurrDst(29204)
updateCurrDst(29553)
updateCurrDst(29585)
updateCurrDst(29693)
updateCurrDst(29790)
updateCurrDst(29812)
updateCurrDst(29894)
updateCurrDst(29898)
updateCurrDst(30010)
updateCurrDst(30036)
updateCurrDst(30181)
updateCurrDst(30249)
updateCurrDst(30251)
updateCurrDst(30399)
Heartbeat CPU 0 instructions: 23000001 cycles: 7180338 heartbeat IPC: 3.24206 cumulative IPC: 3.20319 (Simulation time: 0 hr 1 min 2 sec) 

Warmup complete CPU 0 instructions: 23000001 cycles: 7180338 (Simulation time: 0 hr 1 min 2 sec) 

updateCurrDst(30524)
updateCurrDst(30529)
updateCurrDst(30622)
updateCurrDst(30727)
updateCurrDst(30763)
updateCurrDst(30931)
updateCurrDst(31122)
updateCurrDst(31142)
updateCurrDst(31280)
updateCurrDst(31416)
updateCurrDst(31445)
updateCurrDst(31537)
updateCurrDst(31599)
updateCurrDst(31828)
updateCurrDst(31840)
updateCurrDst(31885)
updateCurrDst(31891)
updateCurrDst(31910)
updateCurrDst(31926)
Heartbeat CPU 0 instructions: 24000001 cycles: 10231627 heartbeat IPC: 0.32773 cumulative IPC: 0.32773 (Simulation time: 0 hr 1 min 6 sec) 
updateCurrDst(32015)
updateCurrDst(32020)
updateCurrDst(32082)
updateCurrDst(32127)
updateCurrDst(32172)
updateCurrDst(32237)
updateCurrDst(32408)
updateCurrDst(32449)
updateCurrDst(32510)
updateCurrDst(32884)
updateCurrDst(33001)
updateCurrDst(33124)
updateCurrDst(33230)
Heartbeat CPU 0 instructions: 25000000 cycles: 13277728 heartbeat IPC: 0.328288 cumulative IPC: 0.328009 (Simulation time: 0 hr 1 min 9 sec) 
updateCurrDst(33522)
updateCurrDst(33528)
updateCurrDst(33881)
updateCurrDst(34241)
updateCurrDst(34295)
updateCurrDst(34369)
updateCurrDst(34408)
updateCurrDst(34430)
updateCurrDst(34432)
updateCurrDst(34448)
updateCurrDst(34470)
updateCurrDst(34500)
updateCurrDst(34569)
updateCurrDst(34774)
updateCurrDst(34775)
updateCurrDst(34877)
updateCurrDst(34964)
Heartbeat CPU 0 instructions: 26000002 cycles: 16316603 heartbeat IPC: 0.32907 cumulative IPC: 0.328362 (Simulation time: 0 hr 1 min 12 sec) 
updateCurrDst(35125)
updateCurrDst(35355)
updateCurrDst(35377)
updateCurrDst(35421)
updateCurrDst(35491)
updateCurrDst(35540)
updateCurrDst(35585)
updateCurrDst(35780)
updateCurrDst(35833)
updateCurrDst(35840)
updateCurrDst(35997)
updateCurrDst(36190)
updateCurrDst(36191)
updateCurrDst(36194)
updateCurrDst(36263)
updateCurrDst(36394)
Heartbeat CPU 0 instructions: 27000000 cycles: 19371917 heartbeat IPC: 0.327298 cumulative IPC: 0.328095 (Simulation time: 0 hr 1 min 15 sec) 
updateCurrDst(36646)
updateCurrDst(36712)
updateCurrDst(36869)
updateCurrDst(37001)
updateCurrDst(37055)
updateCurrDst(37134)
updateCurrDst(37135)
updateCurrDst(37189)
updateCurrDst(37434)
updateCurrDst(37475)
updateCurrDst(37666)
updateCurrDst(37731)
updateCurrDst(37812)
updateCurrDst(37822)
updateCurrDst(37929)
Heartbeat CPU 0 instructions: 28000001 cycles: 22425798 heartbeat IPC: 0.327453 cumulative IPC: 0.327966 (Simulation time: 0 hr 1 min 18 sec) 
updateCurrDst(38093)
updateCurrDst(38492)
updateCurrDst(38731)
updateCurrDst(38786)
updateCurrDst(38832)
updateCurrDst(38850)
updateCurrDst(38867)
updateCurrDst(38930)
updateCurrDst(38950)
updateCurrDst(39091)
updateCurrDst(39159)
updateCurrDst(39167)
updateCurrDst(39238)
updateCurrDst(39263)
updateCurrDst(39316)
Heartbeat CPU 0 instructions: 29000001 cycles: 25464726 heartbeat IPC: 0.329063 cumulative IPC: 0.328149 (Simulation time: 0 hr 1 min 22 sec) 
updateCurrDst(39461)
updateCurrDst(39663)
updateCurrDst(39999)
updateCurrDst(40044)
updateCurrDst(40345)
updateCurrDst(40388)
updateCurrDst(40570)
updateCurrDst(40592)
updateCurrDst(40619)
updateCurrDst(40651)
updateCurrDst(40785)
updateCurrDst(40800)
updateCurrDst(40842)
updateCurrDst(40941)
Heartbeat CPU 0 instructions: 30000001 cycles: 28521744 heartbeat IPC: 0.327116 cumulative IPC: 0.328001 (Simulation time: 0 hr 1 min 25 sec) 
updateCurrDst(40989)
updateCurrDst(41025)
updateCurrDst(41140)
updateCurrDst(41194)
updateCurrDst(41240)
updateCurrDst(41515)
updateCurrDst(41775)
updateCurrDst(41876)
updateCurrDst(41912)
updateCurrDst(41919)
updateCurrDst(41926)
updateCurrDst(42006)
updateCurrDst(42136)
updateCurrDst(42302)
updateCurrDst(42408)
updateCurrDst(42421)
Heartbeat CPU 0 instructions: 31000002 cycles: 31586963 heartbeat IPC: 0.326241 cumulative IPC: 0.32778 (Simulation time: 0 hr 1 min 28 sec) 
updateCurrDst(42507)
updateCurrDst(42517)
updateCurrDst(42608)
updateCurrDst(42651)
updateCurrDst(42698)
updateCurrDst(42814)
updateCurrDst(42926)
updateCurrDst(42947)
updateCurrDst(43291)
updateCurrDst(43427)
updateCurrDst(43490)
updateCurrDst(43584)
updateCurrDst(43659)
updateCurrDst(43663)
Heartbeat CPU 0 instructions: 32000000 cycles: 34630015 heartbeat IPC: 0.328617 cumulative IPC: 0.327873 (Simulation time: 0 hr 1 min 31 sec) 
updateCurrDst(43937)
updateCurrDst(43962)
updateCurrDst(44109)
updateCurrDst(44126)
updateCurrDst(44174)
updateCurrDst(44175)
updateCurrDst(44338)
updateCurrDst(44377)
updateCurrDst(44705)
updateCurrDst(44965)
updateCurrDst(45053)
updateCurrDst(45230)
updateCurrDst(45274)
Heartbeat CPU 0 instructions: 33000000 cycles: 37671183 heartbeat IPC: 0.328821 cumulative IPC: 0.327967 (Simulation time: 0 hr 1 min 35 sec) 
updateCurrDst(45541)
updateCurrDst(45590)
updateCurrDst(45834)
updateCurrDst(45952)
updateCurrDst(46072)
updateCurrDst(46468)
updateCurrDst(46473)
updateCurrDst(46539)
updateCurrDst(46654)
updateCurrDst(46831)
Heartbeat CPU 0 instructions: 34000002 cycles: 40711166 heartbeat IPC: 0.32895 cumulative IPC: 0.328056 (Simulation time: 0 hr 1 min 38 sec) 
updateCurrDst(46978)
updateCurrDst(46982)
updateCurrDst(47039)
updateCurrDst(47088)
updateCurrDst(47092)
updateCurrDst(47149)
updateCurrDst(47194)
updateCurrDst(47195)
updateCurrDst(47661)
updateCurrDst(47702)
updateCurrDst(47985)
updateCurrDst(48022)
updateCurrDst(48111)
updateCurrDst(48155)
updateCurrDst(48333)
Heartbeat CPU 0 instructions: 35000001 cycles: 43753034 heartbeat IPC: 0.328745 cumulative IPC: 0.328114 (Simulation time: 0 hr 1 min 41 sec) 
updateCurrDst(48684)
updateCurrDst(48699)
updateCurrDst(48704)
updateCurrDst(48751)
updateCurrDst(48793)
updateCurrDst(48915)
updateCurrDst(48938)
updateCurrDst(49136)
updateCurrDst(49200)
updateCurrDst(49208)
updateCurrDst(49530)
updateCurrDst(49660)
updateCurrDst(49693)
Heartbeat CPU 0 instructions: 36000001 cycles: 46790711 heartbeat IPC: 0.329199 cumulative IPC: 0.328197 (Simulation time: 0 hr 1 min 44 sec) 
updateCurrDst(49903)
updateCurrDst(50038)
updateCurrDst(50131)
updateCurrDst(50167)
updateCurrDst(50262)
updateCurrDst(50384)
updateCurrDst(50438)
updateCurrDst(50718)
updateCurrDst(50772)
updateCurrDst(51003)
updateCurrDst(51063)
updateCurrDst(51182)
updateCurrDst(51326)
Heartbeat CPU 0 instructions: 37000001 cycles: 49830989 heartbeat IPC: 0.328917 cumulative IPC: 0.328248 (Simulation time: 0 hr 1 min 47 sec) 
updateCurrDst(51347)
updateCurrDst(51454)
updateCurrDst(51591)
updateCurrDst(51602)
updateCurrDst(52113)
updateCurrDst(52126)
updateCurrDst(52140)
updateCurrDst(52180)
updateCurrDst(52219)
updateCurrDst(52352)
updateCurrDst(52535)
updateCurrDst(52591)
updateCurrDst(52600)
updateCurrDst(52621)
Heartbeat CPU 0 instructions: 38000000 cycles: 52870059 heartbeat IPC: 0.329048 cumulative IPC: 0.328301 (Simulation time: 0 hr 1 min 51 sec) 
updateCurrDst(52844)
updateCurrDst(52995)
updateCurrDst(53027)
updateCurrDst(53088)
updateCurrDst(53120)
updateCurrDst(53126)
updateCurrDst(53374)
updateCurrDst(53375)
updateCurrDst(53387)
updateCurrDst(53445)
updateCurrDst(53527)
updateCurrDst(53583)
updateCurrDst(53713)
updateCurrDst(53801)
updateCurrDst(53807)
updateCurrDst(53978)
updateCurrDst(53995)
updateCurrDst(54237)
updateCurrDst(54288)
Heartbeat CPU 0 instructions: 39000001 cycles: 55911290 heartbeat IPC: 0.328815 cumulative IPC: 0.328333 (Simulation time: 0 hr 1 min 54 sec) 
updateCurrDst(54437)
updateCurrDst(54438)
updateCurrDst(54543)
updateCurrDst(54583)
updateCurrDst(54590)
updateCurrDst(54609)
updateCurrDst(54764)
updateCurrDst(54800)
updateCurrDst(54905)
updateCurrDst(55180)
updateCurrDst(55182)
updateCurrDst(55363)
updateCurrDst(55457)
updateCurrDst(55479)
updateCurrDst(55691)
updateCurrDst(55749)
Heartbeat CPU 0 instructions: 40000000 cycles: 58952589 heartbeat IPC: 0.328807 cumulative IPC: 0.328361 (Simulation time: 0 hr 1 min 57 sec) 
updateCurrDst(55889)
updateCurrDst(55928)
updateCurrDst(56241)
updateCurrDst(56401)
updateCurrDst(56430)
updateCurrDst(56627)
updateCurrDst(56659)
updateCurrDst(56755)
updateCurrDst(56802)
updateCurrDst(56816)
updateCurrDst(56841)
updateCurrDst(56909)
updateCurrDst(56986)
updateCurrDst(57112)
updateCurrDst(57124)
updateCurrDst(57208)
updateCurrDst(57245)
Heartbeat CPU 0 instructions: 41000000 cycles: 61993720 heartbeat IPC: 0.328825 cumulative IPC: 0.328387 (Simulation time: 0 hr 2 min 1 sec) 
updateCurrDst(57311)
updateCurrDst(57411)
updateCurrDst(57597)
updateCurrDst(57800)
updateCurrDst(57993)
updateCurrDst(58027)
updateCurrDst(58044)
updateCurrDst(58084)
updateCurrDst(58406)
updateCurrDst(58471)
updateCurrDst(58525)
updateCurrDst(58617)
Heartbeat CPU 0 instructions: 42000002 cycles: 65036138 heartbeat IPC: 0.328687 cumulative IPC: 0.328403 (Simulation time: 0 hr 2 min 4 sec) 
updateCurrDst(59023)
updateCurrDst(59033)
updateCurrDst(59186)
updateCurrDst(59202)
updateCurrDst(59210)
updateCurrDst(59262)
updateCurrDst(59290)
updateCurrDst(59308)
updateCurrDst(59480)
updateCurrDst(59686)
updateCurrDst(59713)
updateCurrDst(59719)
updateCurrDst(59801)
updateCurrDst(59827)
updateCurrDst(59855)
updateCurrDst(59930)
updateCurrDst(60066)
updateCurrDst(60158)
updateCurrDst(60225)
Heartbeat CPU 0 instructions: 43000001 cycles: 68075395 heartbeat IPC: 0.329027 cumulative IPC: 0.328434 (Simulation time: 0 hr 2 min 7 sec) 
updateCurrDst(60289)
updateCurrDst(60353)
updateCurrDst(60520)
updateCurrDst(60665)
updateCurrDst(60666)
updateCurrDst(60971)
updateCurrDst(61006)
updateCurrDst(61024)
updateCurrDst(61053)
updateCurrDst(61084)
updateCurrDst(61171)
updateCurrDst(61402)
updateCurrDst(61435)
updateCurrDst(61438)
updateCurrDst(61556)
updateCurrDst(61585)
updateCurrDst(61597)
Heartbeat CPU 0 instructions: 44000000 cycles: 71116924 heartbeat IPC: 0.328782 cumulative IPC: 0.32845 (Simulation time: 0 hr 2 min 10 sec) 
updateCurrDst(61826)
updateCurrDst(62017)
updateCurrDst(62040)
updateCurrDst(62083)
updateCurrDst(62092)
updateCurrDst(62122)
updateCurrDst(62461)
updateCurrDst(62587)
updateCurrDst(62837)
updateCurrDst(62893)
updateCurrDst(63131)
Heartbeat CPU 0 instructions: 45000000 cycles: 74158035 heartbeat IPC: 0.328827 cumulative IPC: 0.328468 (Simulation time: 0 hr 2 min 13 sec) 
updateCurrDst(63382)
updateCurrDst(63442)
updateCurrDst(63445)
updateCurrDst(63735)
updateCurrDst(63840)
updateCurrDst(63863)
updateCurrDst(63947)
updateCurrDst(64078)
updateCurrDst(64101)
updateCurrDst(64190)
updateCurrDst(64310)
updateCurrDst(64432)
updateCurrDst(64543)
*** Reached end of trace for Core: 0 Repeating trace: ./tracer/pull_u16_k5.xzafter: 46000000
Heartbeat CPU 0 instructions: 46000000 cycles: 77200347 heartbeat IPC: 0.328697 cumulative IPC: 0.328478 (Simulation time: 0 hr 2 min 16 sec) 
Finished CPU 0 instructions: 23000001 cycles: 70020010 cumulative IPC: 0.328478 (Simulation time: 0 hr 2 min 16 sec) 

ChampSim completed all CPUs

Region of Interest Statistics

CPU 0 cumulative IPC: 0.328478 instructions: 23000001 cycles: 70020010

Total ROB STALLS:                    8995737
STLB MISS ROB STALLS:                    333
L1D  LOAD MISS ROB STALLS:            311992  Translation MISS ROB STALLS:             0
L2C  LOAD MISS ROB STALLS:             27788  Translation MISS ROB STALLS:             0
LLC  LOAD MISS ROB STALLS:             27109  Translation MISS ROB STALLS:             0

ITLB TOTAL     ACCESS:           3041993  HIT:    3041993  MISS:          0  HIT %:        100  MISS %:          0   MPKI: 0
ITLB LOAD TRANSLATION ACCESS:    3041993  HIT:    3041993  MISS:          0  HIT %:        100  MISS %:          0   MPKI: 0
ITLB AVERAGE MISS LATENCY:          -nan cycles
ITLB RQ ACCESS:     3246838	FORWARD:           0	MERGED:       204845	TO_CACHE:    3041993

DTLB TOTAL     ACCESS:           6837087  HIT:    6808138  MISS:      28949  HIT %:    99.5766  MISS %:   0.423411   MPKI: 1.25865
DTLB LOAD TRANSLATION ACCESS:    6837087  HIT:    6808138  MISS:      28949  HIT %:    99.5766  MISS %:   0.423411   MPKI: 1.25865
DTLB AVERAGE MISS LATENCY:       11.8872 cycles
DTLB RQ ACCESS:     9410481	FORWARD:           0	MERGED:      2573394	TO_CACHE:    6837087

STLB TOTAL     ACCESS:             28949  HIT:      28616  MISS:        333  HIT %:    98.8497  MISS %:     1.1503   MPKI: 0.0144783
STLB LOAD TRANSLATION ACCESS:      28949  HIT:      28616  MISS:        333  HIT %:    98.8497  MISS %:     1.1503   MPKI: 0.0144783
STLB AVERAGE MISS LATENCY:           251 cycles
STLB RQ ACCESS:       28949	FORWARD:           0	MERGED:            0	TO_CACHE:      28949

PSCL5 TOTAL     ACCESS:               333  HIT:        333  MISS:          0  HIT %:        100  MISS %:          0   MPKI: 0
PSCL5 LOAD TRANSLATION ACCESS:        333  HIT:        333  MISS:          0  HIT %:        100  MISS %:          0   MPKI: 0

PSCL4 TOTAL     ACCESS:               333  HIT:        333  MISS:          0  HIT %:        100  MISS %:          0   MPKI: 0
PSCL4 LOAD TRANSLATION ACCESS:        333  HIT:        333  MISS:          0  HIT %:        100  MISS %:          0   MPKI: 0

PSCL3 TOTAL     ACCESS:               333  HIT:        333  MISS:          0  HIT %:        100  MISS %:          0   MPKI: 0
PSCL3 LOAD TRANSLATION ACCESS:        333  HIT:        333  MISS:          0  HIT %:        100  MISS %:          0   MPKI: 0

PSCL2 TOTAL     ACCESS:               333  HIT:        333  MISS:          0  HIT %:        100  MISS %:          0   MPKI: 0
PSCL2 LOAD TRANSLATION ACCESS:        333  HIT:        333  MISS:          0  HIT %:        100  MISS %:          0   MPKI: 0

L1D TOTAL     ACCESS:           9410481  HIT:    9098490  MISS:     311991  HIT %:    96.6846  MISS %:    3.31536   MPKI: 13.5648  USED:      75610  UNUSED:     236381
L1D LOAD      ACCESS:           4117121  HIT:    3805130  MISS:     311991  HIT %:    92.4221  MISS %:    7.57789   MPKI: 13.5648  USED:      75610  UNUSED:     236381
L1D RFO       ACCESS:           5293360  HIT:    5293360  MISS:          0  HIT %:        100  MISS %:          0   MPKI: 0
L1D PTL1 TRANSLATION ACCESS:          0  HIT:          0  MISS:          0  HIT %:       -nan  MISS %:       -nan   MPKI: 0
L1D PTL2 TRANSLATION ACCESS:          0  HIT:          0  MISS:          0  HIT %:       -nan  MISS %:       -nan   MPKI: 0
L1D PTL3 TRANSLATION ACCESS:          0  HIT:          0  MISS:          0  HIT %:       -nan  MISS %:       -nan   MPKI: 0
L1D PTL4 TRANSLATION ACCESS:          0  HIT:          0  MISS:          0  HIT %:       -nan  MISS %:       -nan   MPKI: 0
L1D PTL5 TRANSLATION ACCESS:          0  HIT:          0  MISS:          0  HIT %:       -nan  MISS %:       -nan   MPKI: 0
L1D TOTAL EVICTIONS:             311991  TRANSLATION EVICTIONS:          0  TRANSLATION EVICTING TRANSALTION:          0  TRANSLATION EVICTING LOAD:          0  LOAD EVICTING TRANSALTION:          0  LOAD EVICTING LOAD:      311991
L1D AVERAGE MISS LATENCY:       28.2024 cycles  AVERAGE LOAD MISS LATENCY:       28.2024 cycles  AVERAGE LOAD TRANSLATION MISS LATENCY:          -nan cycles
L1D RQ ACCESS:     5847664	FORWARD:           0	MERGED:      1160562	TO_CACHE:    4117122
L1D WQ ACCESS:     5297187	FORWARD:      569980	MERGED:         3828	TO_CACHE:    5293359

L1I TOTAL     ACCESS:           3246838  HIT:    3246838  MISS:          0  HIT %:        100  MISS %:          0   MPKI: 0
L1I LOAD      ACCESS:           3246838  HIT:    3246838  MISS:          0  HIT %:        100  MISS %:          0   MPKI: 0
L1I AVERAGE MISS LATENCY:          -nan cycles
L1I RQ ACCESS:     5195968	FORWARD:           0	MERGED:      1949130	TO_CACHE:    3246838

L2C TOTAL     ACCESS:            314126  HIT:     286339  MISS:      27787  HIT %:    91.1542  MISS %:    8.84581   MPKI: 1.20813  USED:         20  UNUSED:      27767
L2C LOAD      ACCESS:            311991  HIT:     284204  MISS:      27787  HIT %:    91.0937  MISS %:    8.90635   MPKI: 1.20813  USED:          9  UNUSED:      27767
L2C WRITEBACK ACCESS:              2135  HIT:       2135  MISS:          0  HIT %:        100  MISS %:          0   MPKI: 0
L2C PTL1 TRANSLATION ACCESS:          0  HIT:          0  MISS:          0  HIT %:       -nan  MISS %:       -nan   MPKI: 0
L2C PTL2 TRANSLATION ACCESS:          0  HIT:          0  MISS:          0  HIT %:       -nan  MISS %:       -nan   MPKI: 0
L2C PTL3 TRANSLATION ACCESS:          0  HIT:          0  MISS:          0  HIT %:       -nan  MISS %:       -nan   MPKI: 0
L2C PTL4 TRANSLATION ACCESS:          0  HIT:          0  MISS:          0  HIT %:       -nan  MISS %:       -nan   MPKI: 0
L2C PTL5 TRANSLATION ACCESS:          0  HIT:          0  MISS:          0  HIT %:       -nan  MISS %:       -nan   MPKI: 0
L2C TOTAL EVICTIONS:              27787  TRANSLATION EVICTIONS:          0  TRANSLATION EVICTING TRANSALTION:          0  TRANSLATION EVICTING LOAD:          0  LOAD EVICTING TRANSALTION:          0  LOAD EVICTING LOAD:       27776
L2C AVERAGE MISS LATENCY:       148.236 cycles  AVERAGE LOAD MISS LATENCY:       148.236 cycles  AVERAGE LOAD TRANSLATION MISS LATENCY:          -nan cycles
L2C RQ ACCESS:      311992	FORWARD:           0	MERGED:            0	TO_CACHE:     311992
L2C WQ ACCESS:        2135	FORWARD:           0	MERGED:            0	TO_CACHE:       2135

LLC TOTAL     ACCESS:             29812  HIT:       2692  MISS:      27120  HIT %:    9.02992  MISS %:    90.9701   MPKI: 1.17913  USED:          0  UNUSED:          0
LLC LOAD      ACCESS:             27787  HIT:        678  MISS:      27109  HIT %:    2.43999  MISS %:      97.56   MPKI: 1.17865  USED:          0  UNUSED:          0
LLC WRITEBACK ACCESS:              2025  HIT:       2014  MISS:         11  HIT %:    99.4568  MISS %:    0.54321   MPKI: 0.000478261
LLC PTL1 TRANSLATION ACCESS:          0  HIT:          0  MISS:          0  HIT %:       -nan  MISS %:       -nan   MPKI: 0
LLC PTL2 TRANSLATION ACCESS:          0  HIT:          0  MISS:          0  HIT %:       -nan  MISS %:       -nan   MPKI: 0
LLC PTL3 TRANSLATION ACCESS:          0  HIT:          0  MISS:          0  HIT %:       -nan  MISS %:       -nan   MPKI: 0
LLC PTL4 TRANSLATION ACCESS:          0  HIT:          0  MISS:          0  HIT %:       -nan  MISS %:       -nan   MPKI: 0
LLC PTL5 TRANSLATION ACCESS:          0  HIT:          0  MISS:          0  HIT %:       -nan  MISS %:       -nan   MPKI: 0
LLC TOTAL EVICTIONS:                  0  TRANSLATION EVICTIONS:          0  TRANSLATION EVICTING TRANSALTION:          0  TRANSLATION EVICTING LOAD:          0  LOAD EVICTING TRANSALTION:          0  LOAD EVICTING LOAD:           0
LLC AVERAGE MISS LATENCY:       121.144 cycles  AVERAGE LOAD MISS LATENCY:       121.193 cycles  AVERAGE LOAD TRANSLATION MISS LATENCY:          -nan cycles
LLC RQ ACCESS:       27788	FORWARD:           0	MERGED:            0	TO_CACHE:      27788
LLC WQ ACCESS:        2025	FORWARD:           0	MERGED:            0	TO_CACHE:       2025


RAW hits: 3994738
Loads Generated: 9842402
Loads sent to L1D: 5847664
Stores Generated: 5297186
Stores sent to L1D: 5297187
Major fault: 0 Minor fault: 1101
Allocated PAGES: 1101
IRREG DATA L1D ACCESS: 647119
L2C ACCESSES: 537993
L2C MISSES: 1076

DRAM Statistics
 CHANNEL 0
 RQ ROW_BUFFER_HIT:      13231  ROW_BUFFER_MISS:      14211
 DBUS_CONGESTED:          0
 WQ ROW_BUFFER_HIT:          0  ROW_BUFFER_MISS:       3489  FULL:          0

 AVG_CONGESTED_CYCLE: -

CPU 0 Branch Prediction Accuracy: 98.7921% MPKI: 1.48961 Average ROB Occupancy at Mispredict: 16.2057
Branch types
NOT_BRANCH: 20163137 87.6658%
BRANCH_DIRECT_JUMP: 0 0%
BRANCH_INDIRECT: 375881 1.63427%
BRANCH_CONDITIONAL: 0 0%
BRANCH_DIRECT_CALL: 34189 0.148648%
BRANCH_INDIRECT_CALL: 956893 4.1604%
BRANCH_RETURN: 991082 4.30905%
BRANCH_OTHER: 478448 2.08021%

DRAM PAGES: 1048576
Allocated PAGES: 1101
