
*** ChampSim Multicore Out-of-Order Simulator ***

Warmup Instructions: 23000000
Simulation Instructions: 23000000
Number of CPUs: 1
LLC sets: 2048
LLC ways: 16
Off-chip DRAM Size: 4096 MB Channels: 1 Width: 64-bit Data Rate: 6400 MT/s
CPU 0 runs ./tracer/pull_u16_k5.xz
.xz
BTB has LRU replacement policy
ITLB has LRU replacement policy
DTLB has LRU replacement policy
STLB has LRU replacement policy
L1I has LRU replacement policy
L1D has LRU replacement policy
L2C has LRU replacement policy
Initialize DRRIP state for LLC
Heartbeat CPU 0 instructions: 1000000 cycles: 350520 heartbeat IPC: 2.8529 cumulative IPC: 2.8529 (Simulation time: 0 hr 0 min 3 sec) 
PIN_registerGraphs(random_u16_k5.sg,1)
Graphh Number of Nodes: 65536
Heartbeat CPU 0 instructions: 2000000 cycles: 690866 heartbeat IPC: 2.93819 cumulative IPC: 2.89492 (Simulation time: 0 hr 0 min 5 sec) 
PIN_updateRegBaseBound( 94227135865040, 94227136127184)
updateCurrDst(353)
updateCurrDst(440)
updateCurrDst(458)
updateCurrDst(510)
updateCurrDst(560)
updateCurrDst(566)
updateCurrDst(610)
updateCurrDst(625)
updateCurrDst(693)
updateCurrDst(734)
updateCurrDst(759)
updateCurrDst(817)
Heartbeat CPU 0 instructions: 3000002 cycles: 1011169 heartbeat IPC: 3.12205 cumulative IPC: 2.96687 (Simulation time: 0 hr 0 min 7 sec) 
updateCurrDst(843)
updateCurrDst(856)
updateCurrDst(872)
updateCurrDst(929)
updateCurrDst(930)
updateCurrDst(1021)
updateCurrDst(1102)
updateCurrDst(1115)
updateCurrDst(1195)
updateCurrDst(1413)
updateCurrDst(1486)
updateCurrDst(1537)
updateCurrDst(1809)
updateCurrDst(2099)
updateCurrDst(2119)
updateCurrDst(2175)
updateCurrDst(2232)
Heartbeat CPU 0 instructions: 4000001 cycles: 1319700 heartbeat IPC: 3.24116 cumulative IPC: 3.03099 (Simulation time: 0 hr 0 min 10 sec) 
updateCurrDst(2533)
updateCurrDst(2557)
updateCurrDst(3117)
updateCurrDst(3189)
updateCurrDst(3311)
updateCurrDst(3339)
updateCurrDst(3394)
updateCurrDst(3431)
updateCurrDst(3477)
updateCurrDst(3593)
Heartbeat CPU 0 instructions: 5000000 cycles: 1628381 heartbeat IPC: 3.23959 cumulative IPC: 3.07053 (Simulation time: 0 hr 0 min 13 sec) 
updateCurrDst(3883)
updateCurrDst(3939)
updateCurrDst(4179)
updateCurrDst(4309)
updateCurrDst(4495)
updateCurrDst(4650)
updateCurrDst(4740)
Heartbeat CPU 0 instructions: 6000003 cycles: 1936577 heartbeat IPC: 3.2447 cumulative IPC: 3.09825 (Simulation time: 0 hr 0 min 16 sec) 
updateCurrDst(5324)
updateCurrDst(5500)
updateCurrDst(5525)
updateCurrDst(5563)
updateCurrDst(5655)
updateCurrDst(5710)
updateCurrDst(5959)
updateCurrDst(5964)
updateCurrDst(5969)
updateCurrDst(6271)
updateCurrDst(6441)
updateCurrDst(6527)
updateCurrDst(6572)
Heartbeat CPU 0 instructions: 7000000 cycles: 2245376 heartbeat IPC: 3.23834 cumulative IPC: 3.11752 (Simulation time: 0 hr 0 min 19 sec) 
updateCurrDst(6882)
updateCurrDst(6991)
updateCurrDst(7000)
updateCurrDst(7100)
updateCurrDst(7187)
updateCurrDst(7279)
updateCurrDst(7299)
updateCurrDst(7328)
updateCurrDst(7399)
updateCurrDst(7578)
updateCurrDst(7752)
updateCurrDst(7845)
updateCurrDst(8117)
updateCurrDst(8183)
Heartbeat CPU 0 instructions: 8000002 cycles: 2553769 heartbeat IPC: 3.24262 cumulative IPC: 3.13263 (Simulation time: 0 hr 0 min 22 sec) 
updateCurrDst(8488)
updateCurrDst(8505)
updateCurrDst(8632)
updateCurrDst(8684)
updateCurrDst(8742)
updateCurrDst(8826)
updateCurrDst(8858)
updateCurrDst(8874)
updateCurrDst(8985)
updateCurrDst(9021)
updateCurrDst(9076)
updateCurrDst(9237)
updateCurrDst(9301)
updateCurrDst(9414)
updateCurrDst(9541)
Heartbeat CPU 0 instructions: 9000001 cycles: 2862074 heartbeat IPC: 3.24354 cumulative IPC: 3.14457 (Simulation time: 0 hr 0 min 25 sec) 
updateCurrDst(9792)
updateCurrDst(9825)
updateCurrDst(9950)
updateCurrDst(10055)
updateCurrDst(10056)
updateCurrDst(10135)
updateCurrDst(10248)
updateCurrDst(10262)
updateCurrDst(10317)
updateCurrDst(10376)
updateCurrDst(10414)
updateCurrDst(10626)
updateCurrDst(10738)
updateCurrDst(10842)
updateCurrDst(11053)
updateCurrDst(11085)
updateCurrDst(11092)
Heartbeat CPU 0 instructions: 10000001 cycles: 3170498 heartbeat IPC: 3.24229 cumulative IPC: 3.15408 (Simulation time: 0 hr 0 min 28 sec) 
updateCurrDst(11347)
updateCurrDst(11432)
updateCurrDst(11459)
updateCurrDst(11468)
updateCurrDst(11556)
updateCurrDst(11614)
updateCurrDst(11656)
updateCurrDst(11853)
updateCurrDst(11948)
updateCurrDst(12028)
updateCurrDst(12114)
updateCurrDst(12142)
updateCurrDst(12318)
updateCurrDst(12425)
updateCurrDst(12579)
Heartbeat CPU 0 instructions: 11000000 cycles: 3478809 heartbeat IPC: 3.24347 cumulative IPC: 3.162 (Simulation time: 0 hr 0 min 32 sec) 
updateCurrDst(12799)
updateCurrDst(12853)
updateCurrDst(13155)
updateCurrDst(13168)
updateCurrDst(13258)
updateCurrDst(13319)
updateCurrDst(13342)
updateCurrDst(13480)
updateCurrDst(13515)
updateCurrDst(13749)
updateCurrDst(13754)
updateCurrDst(14068)
updateCurrDst(14070)
updateCurrDst(14104)
Heartbeat CPU 0 instructions: 12000003 cycles: 3787405 heartbeat IPC: 3.24049 cumulative IPC: 3.1684 (Simulation time: 0 hr 0 min 35 sec) 
updateCurrDst(14317)
updateCurrDst(14351)
updateCurrDst(14416)
updateCurrDst(14599)
updateCurrDst(14800)
updateCurrDst(14836)
updateCurrDst(15108)
Heartbeat CPU 0 instructions: 13000001 cycles: 4095629 heartbeat IPC: 3.24439 cumulative IPC: 3.17412 (Simulation time: 0 hr 0 min 38 sec) 
updateCurrDst(15658)
updateCurrDst(15659)
updateCurrDst(15695)
updateCurrDst(15865)
updateCurrDst(15894)
updateCurrDst(16096)
updateCurrDst(16121)
updateCurrDst(16166)
updateCurrDst(16170)
updateCurrDst(16218)
updateCurrDst(16220)
updateCurrDst(16221)
updateCurrDst(16254)
updateCurrDst(16350)
updateCurrDst(16378)
updateCurrDst(16884)
updateCurrDst(16922)
updateCurrDst(16947)
updateCurrDst(16991)
updateCurrDst(17118)
Heartbeat CPU 0 instructions: 14000000 cycles: 4404072 heartbeat IPC: 3.24209 cumulative IPC: 3.17888 (Simulation time: 0 hr 0 min 41 sec) 
updateCurrDst(17173)
updateCurrDst(17176)
updateCurrDst(17185)
updateCurrDst(17230)
updateCurrDst(17536)
updateCurrDst(17669)
updateCurrDst(17681)
updateCurrDst(17828)
updateCurrDst(17864)
updateCurrDst(17944)
updateCurrDst(17945)
updateCurrDst(18031)
updateCurrDst(18048)
updateCurrDst(18234)
updateCurrDst(18373)
Heartbeat CPU 0 instructions: 15000001 cycles: 4712332 heartbeat IPC: 3.24402 cumulative IPC: 3.18314 (Simulation time: 0 hr 0 min 44 sec) 
updateCurrDst(18661)
updateCurrDst(18744)
updateCurrDst(18750)
updateCurrDst(18807)
updateCurrDst(18822)
updateCurrDst(18894)
updateCurrDst(18938)
updateCurrDst(19020)
updateCurrDst(19315)
updateCurrDst(19340)
updateCurrDst(19586)
updateCurrDst(19818)
updateCurrDst(19873)
Heartbeat CPU 0 instructions: 16000003 cycles: 5020951 heartbeat IPC: 3.24025 cumulative IPC: 3.18665 (Simulation time: 0 hr 0 min 47 sec) 
updateCurrDst(20269)
updateCurrDst(20284)
updateCurrDst(20311)
updateCurrDst(20536)
updateCurrDst(20657)
updateCurrDst(20675)
updateCurrDst(20687)
updateCurrDst(20703)
updateCurrDst(20710)
updateCurrDst(20796)
updateCurrDst(20807)
updateCurrDst(20849)
updateCurrDst(20864)
updateCurrDst(20883)
updateCurrDst(21222)
updateCurrDst(21310)
updateCurrDst(21402)
updateCurrDst(21449)
updateCurrDst(21459)
updateCurrDst(21507)
Heartbeat CPU 0 instructions: 17000002 cycles: 5329533 heartbeat IPC: 3.24063 cumulative IPC: 3.18977 (Simulation time: 0 hr 0 min 50 sec) 
updateCurrDst(21843)
updateCurrDst(21965)
updateCurrDst(22050)
updateCurrDst(22058)
updateCurrDst(22070)
updateCurrDst(22084)
updateCurrDst(22124)
updateCurrDst(22272)
updateCurrDst(22314)
updateCurrDst(22338)
updateCurrDst(22552)
updateCurrDst(22623)
updateCurrDst(22654)
updateCurrDst(22686)
updateCurrDst(22825)
updateCurrDst(22844)
updateCurrDst(22859)
updateCurrDst(22990)
updateCurrDst(23032)
updateCurrDst(23062)
Heartbeat CPU 0 instructions: 18000000 cycles: 5637920 heartbeat IPC: 3.24267 cumulative IPC: 3.19267 (Simulation time: 0 hr 0 min 54 sec) 
updateCurrDst(23119)
updateCurrDst(23124)
updateCurrDst(23193)
updateCurrDst(23220)
updateCurrDst(23238)
updateCurrDst(23270)
updateCurrDst(23539)
updateCurrDst(23628)
updateCurrDst(23653)
updateCurrDst(23819)
updateCurrDst(24016)
updateCurrDst(24165)
updateCurrDst(24200)
updateCurrDst(24217)
updateCurrDst(24243)
updateCurrDst(24445)
updateCurrDst(24457)
updateCurrDst(24469)
updateCurrDst(24509)
Heartbeat CPU 0 instructions: 19000002 cycles: 5946252 heartbeat IPC: 3.24326 cumulative IPC: 3.19529 (Simulation time: 0 hr 0 min 57 sec) 
updateCurrDst(24585)
updateCurrDst(24642)
updateCurrDst(24655)
updateCurrDst(24670)
updateCurrDst(24685)
updateCurrDst(25026)
updateCurrDst(25027)
updateCurrDst(25320)
updateCurrDst(25344)
updateCurrDst(25526)
updateCurrDst(25854)
updateCurrDst(25960)
updateCurrDst(25972)
updateCurrDst(26040)
Heartbeat CPU 0 instructions: 20000000 cycles: 6254916 heartbeat IPC: 3.23976 cumulative IPC: 3.19748 (Simulation time: 0 hr 1 min 0 sec) 
updateCurrDst(26102)
updateCurrDst(26403)
updateCurrDst(26539)
updateCurrDst(26645)
updateCurrDst(26752)
updateCurrDst(26788)
updateCurrDst(26858)
updateCurrDst(26878)
updateCurrDst(26967)
updateCurrDst(26983)
updateCurrDst(27026)
updateCurrDst(27134)
updateCurrDst(27159)
updateCurrDst(27242)
updateCurrDst(27332)
Heartbeat CPU 0 instructions: 21000000 cycles: 6563491 heartbeat IPC: 3.2407 cumulative IPC: 3.19952 (Simulation time: 0 hr 1 min 3 sec) 
updateCurrDst(27563)
updateCurrDst(27573)
updateCurrDst(27595)
updateCurrDst(27636)
updateCurrDst(27645)
updateCurrDst(27784)
updateCurrDst(27814)
updateCurrDst(27904)
updateCurrDst(28020)
updateCurrDst(28078)
updateCurrDst(28109)
updateCurrDst(28180)
updateCurrDst(28276)
updateCurrDst(28377)
updateCurrDst(28378)
updateCurrDst(28379)
updateCurrDst(28427)
updateCurrDst(28449)
updateCurrDst(28480)
updateCurrDst(28587)
updateCurrDst(28652)
updateCurrDst(28735)
updateCurrDst(28766)
updateCurrDst(28851)
updateCurrDst(28923)
updateCurrDst(29035)
Heartbeat CPU 0 instructions: 22000000 cycles: 6872022 heartbeat IPC: 3.24117 cumulative IPC: 3.20139 (Simulation time: 0 hr 1 min 6 sec) 
updateCurrDst(29045)
updateCurrDst(29306)
updateCurrDst(29378)
updateCurrDst(29426)
updateCurrDst(29505)
updateCurrDst(29559)
updateCurrDst(29771)
updateCurrDst(29885)
updateCurrDst(29945)
updateCurrDst(30042)
updateCurrDst(30335)
updateCurrDst(30387)
updateCurrDst(30459)
updateCurrDst(30482)
updateCurrDst(30490)
updateCurrDst(30504)
Heartbeat CPU 0 instructions: 23000001 cycles: 7180494 heartbeat IPC: 3.24179 cumulative IPC: 3.20312 (Simulation time: 0 hr 1 min 10 sec) 

Warmup complete CPU 0 instructions: 23000001 cycles: 7180494 (Simulation time: 0 hr 1 min 10 sec) 

updateCurrDst(30587)
updateCurrDst(30650)
updateCurrDst(30684)
updateCurrDst(31299)
updateCurrDst(31522)
updateCurrDst(31527)
updateCurrDst(31603)
updateCurrDst(31720)
updateCurrDst(31779)
updateCurrDst(31956)
updateCurrDst(31962)
updateCurrDst(31977)
Heartbeat CPU 0 instructions: 24000001 cycles: 10151651 heartbeat IPC: 0.336569 cumulative IPC: 0.336569 (Simulation time: 0 hr 1 min 13 sec) 
updateCurrDst(32031)
updateCurrDst(32051)
updateCurrDst(32092)
updateCurrDst(32095)
updateCurrDst(32107)
updateCurrDst(32149)
updateCurrDst(32167)
updateCurrDst(32538)
updateCurrDst(32579)
updateCurrDst(32654)
updateCurrDst(32744)
updateCurrDst(32833)
updateCurrDst(32864)
updateCurrDst(33015)
updateCurrDst(33026)
updateCurrDst(33086)
updateCurrDst(33145)
updateCurrDst(33384)
updateCurrDst(33422)
updateCurrDst(33462)
Heartbeat CPU 0 instructions: 25000000 cycles: 13123161 heartbeat IPC: 0.336529 cumulative IPC: 0.336549 (Simulation time: 0 hr 1 min 17 sec) 
updateCurrDst(33732)
updateCurrDst(33739)
updateCurrDst(34090)
updateCurrDst(34129)
updateCurrDst(34405)
updateCurrDst(34473)
updateCurrDst(34538)
updateCurrDst(34600)
updateCurrDst(34810)
updateCurrDst(34828)
updateCurrDst(34917)
Heartbeat CPU 0 instructions: 26000002 cycles: 16095141 heartbeat IPC: 0.336477 cumulative IPC: 0.336525 (Simulation time: 0 hr 1 min 20 sec) 
updateCurrDst(35114)
updateCurrDst(35220)
updateCurrDst(35226)
updateCurrDst(35244)
updateCurrDst(35547)
updateCurrDst(35654)
updateCurrDst(35677)
updateCurrDst(35800)
updateCurrDst(35803)
updateCurrDst(35873)
updateCurrDst(35929)
updateCurrDst(36017)
updateCurrDst(36026)
updateCurrDst(36214)
updateCurrDst(36374)
Heartbeat CPU 0 instructions: 27000000 cycles: 19068856 heartbeat IPC: 0.336279 cumulative IPC: 0.336463 (Simulation time: 0 hr 1 min 23 sec) 
updateCurrDst(36504)
updateCurrDst(36598)
updateCurrDst(36668)
updateCurrDst(36697)
updateCurrDst(36761)
updateCurrDst(36879)
updateCurrDst(36930)
updateCurrDst(37193)
updateCurrDst(37272)
updateCurrDst(37282)
updateCurrDst(37322)
updateCurrDst(37353)
updateCurrDst(37511)
updateCurrDst(37515)
updateCurrDst(37772)
updateCurrDst(37814)
updateCurrDst(37867)
Heartbeat CPU 0 instructions: 28000001 cycles: 22041701 heartbeat IPC: 0.336378 cumulative IPC: 0.336446 (Simulation time: 0 hr 1 min 27 sec) 
updateCurrDst(38021)
updateCurrDst(38023)
updateCurrDst(38179)
updateCurrDst(38275)
updateCurrDst(38394)
updateCurrDst(38517)
updateCurrDst(38670)
updateCurrDst(38818)
updateCurrDst(38838)
updateCurrDst(38945)
updateCurrDst(39109)
updateCurrDst(39347)
Heartbeat CPU 0 instructions: 29000001 cycles: 25011991 heartbeat IPC: 0.336667 cumulative IPC: 0.336483 (Simulation time: 0 hr 1 min 30 sec) 
updateCurrDst(39625)
updateCurrDst(39790)
updateCurrDst(39840)
updateCurrDst(39937)
updateCurrDst(39957)
updateCurrDst(40055)
updateCurrDst(40100)
updateCurrDst(40306)
updateCurrDst(40413)
updateCurrDst(40414)
updateCurrDst(40427)
updateCurrDst(40493)
updateCurrDst(40536)
updateCurrDst(40613)
updateCurrDst(40688)
updateCurrDst(40810)
Heartbeat CPU 0 instructions: 30000001 cycles: 27982739 heartbeat IPC: 0.336616 cumulative IPC: 0.336502 (Simulation time: 0 hr 1 min 33 sec) 
updateCurrDst(41298)
updateCurrDst(41357)
updateCurrDst(41512)
updateCurrDst(41690)
updateCurrDst(41761)
updateCurrDst(41826)
updateCurrDst(41881)
updateCurrDst(41899)
updateCurrDst(41951)
updateCurrDst(41999)
updateCurrDst(42181)
updateCurrDst(42412)
Heartbeat CPU 0 instructions: 31000002 cycles: 30955695 heartbeat IPC: 0.336366 cumulative IPC: 0.336485 (Simulation time: 0 hr 1 min 37 sec) 
updateCurrDst(42466)
updateCurrDst(42522)
updateCurrDst(42784)
updateCurrDst(42935)
updateCurrDst(43209)
updateCurrDst(43269)
updateCurrDst(43351)
updateCurrDst(43426)
updateCurrDst(43427)
updateCurrDst(43569)
updateCurrDst(43634)
updateCurrDst(43843)
Heartbeat CPU 0 instructions: 32000000 cycles: 33927393 heartbeat IPC: 0.336507 cumulative IPC: 0.336488 (Simulation time: 0 hr 1 min 40 sec) 
updateCurrDst(43926)
updateCurrDst(44036)
updateCurrDst(44190)
updateCurrDst(44268)
updateCurrDst(44270)
updateCurrDst(44353)
updateCurrDst(44474)
updateCurrDst(44479)
updateCurrDst(44627)
updateCurrDst(44665)
updateCurrDst(44750)
updateCurrDst(44878)
updateCurrDst(44900)
updateCurrDst(44907)
updateCurrDst(44921)
updateCurrDst(44933)
updateCurrDst(45043)
updateCurrDst(45201)
updateCurrDst(45235)
updateCurrDst(45375)
Heartbeat CPU 0 instructions: 33000000 cycles: 36899414 heartbeat IPC: 0.336471 cumulative IPC: 0.336486 (Simulation time: 0 hr 1 min 43 sec) 
updateCurrDst(45407)
updateCurrDst(45425)
updateCurrDst(45444)
updateCurrDst(45537)
updateCurrDst(45545)
updateCurrDst(45739)
updateCurrDst(45782)
updateCurrDst(45863)
updateCurrDst(45879)
updateCurrDst(45981)
updateCurrDst(46004)
updateCurrDst(46065)
updateCurrDst(46066)
updateCurrDst(46088)
updateCurrDst(46107)
updateCurrDst(46251)
updateCurrDst(46347)
updateCurrDst(46441)
updateCurrDst(46455)
updateCurrDst(46478)
updateCurrDst(46539)
updateCurrDst(46596)
updateCurrDst(46630)
updateCurrDst(46679)
updateCurrDst(46689)
updateCurrDst(46749)
Heartbeat CPU 0 instructions: 34000002 cycles: 39869977 heartbeat IPC: 0.336637 cumulative IPC: 0.3365 (Simulation time: 0 hr 1 min 46 sec) 
updateCurrDst(47045)
updateCurrDst(47048)
updateCurrDst(47115)
updateCurrDst(47368)
updateCurrDst(47454)
updateCurrDst(47575)
updateCurrDst(47598)
updateCurrDst(47615)
updateCurrDst(47685)
updateCurrDst(47921)
updateCurrDst(47953)
updateCurrDst(48038)
updateCurrDst(48086)
updateCurrDst(48219)
updateCurrDst(48306)
Heartbeat CPU 0 instructions: 35000001 cycles: 42843294 heartbeat IPC: 0.336324 cumulative IPC: 0.336485 (Simulation time: 0 hr 1 min 50 sec) 
updateCurrDst(48352)
updateCurrDst(48505)
updateCurrDst(48517)
updateCurrDst(48627)
updateCurrDst(48783)
updateCurrDst(48795)
updateCurrDst(48832)
updateCurrDst(48918)
updateCurrDst(49061)
updateCurrDst(49117)
updateCurrDst(49480)
updateCurrDst(49487)
updateCurrDst(49505)
updateCurrDst(49517)
updateCurrDst(49699)
updateCurrDst(49744)
updateCurrDst(49774)
updateCurrDst(49802)
Heartbeat CPU 0 instructions: 36000001 cycles: 45812762 heartbeat IPC: 0.336761 cumulative IPC: 0.336506 (Simulation time: 0 hr 1 min 53 sec) 
updateCurrDst(49880)
updateCurrDst(49919)
updateCurrDst(49939)
updateCurrDst(50049)
updateCurrDst(50095)
updateCurrDst(50147)
updateCurrDst(50168)
updateCurrDst(50847)
updateCurrDst(51044)
updateCurrDst(51097)
updateCurrDst(51256)
Heartbeat CPU 0 instructions: 37000001 cycles: 48784306 heartbeat IPC: 0.336525 cumulative IPC: 0.336508 (Simulation time: 0 hr 1 min 56 sec) 
updateCurrDst(51385)
updateCurrDst(51412)
updateCurrDst(51446)
updateCurrDst(51597)
updateCurrDst(51976)
updateCurrDst(52278)
updateCurrDst(52314)
updateCurrDst(52341)
updateCurrDst(52345)
updateCurrDst(52513)
updateCurrDst(52735)
Heartbeat CPU 0 instructions: 38000000 cycles: 51753975 heartbeat IPC: 0.336738 cumulative IPC: 0.336523 (Simulation time: 0 hr 1 min 59 sec) 
updateCurrDst(53057)
updateCurrDst(53120)
updateCurrDst(53550)
updateCurrDst(53552)
updateCurrDst(53675)
updateCurrDst(53736)
updateCurrDst(54004)
updateCurrDst(54012)
updateCurrDst(54048)
updateCurrDst(54123)
updateCurrDst(54144)
updateCurrDst(54286)
Heartbeat CPU 0 instructions: 39000001 cycles: 54725237 heartbeat IPC: 0.336558 cumulative IPC: 0.336525 (Simulation time: 0 hr 2 min 3 sec) 
updateCurrDst(54491)
updateCurrDst(54542)
updateCurrDst(54583)
updateCurrDst(54628)
updateCurrDst(54693)
updateCurrDst(54773)
updateCurrDst(55020)
updateCurrDst(55040)
updateCurrDst(55185)
updateCurrDst(55388)
updateCurrDst(55417)
Heartbeat CPU 0 instructions: 40000000 cycles: 57697606 heartbeat IPC: 0.336432 cumulative IPC: 0.33652 (Simulation time: 0 hr 2 min 6 sec) 
updateCurrDst(55825)
updateCurrDst(55833)
updateCurrDst(56175)
updateCurrDst(56177)
updateCurrDst(56179)
updateCurrDst(56200)
updateCurrDst(56226)
updateCurrDst(56314)
updateCurrDst(56361)
updateCurrDst(56412)
updateCurrDst(56617)
updateCurrDst(56619)
updateCurrDst(56855)
updateCurrDst(56904)
updateCurrDst(57142)
updateCurrDst(57253)
updateCurrDst(57279)
Heartbeat CPU 0 instructions: 41000000 cycles: 60670809 heartbeat IPC: 0.336338 cumulative IPC: 0.336509 (Simulation time: 0 hr 2 min 10 sec) 
updateCurrDst(57319)
updateCurrDst(57395)
updateCurrDst(57435)
updateCurrDst(57791)
updateCurrDst(57853)
updateCurrDst(57971)
updateCurrDst(57974)
updateCurrDst(58436)
updateCurrDst(58468)
updateCurrDst(58725)
Heartbeat CPU 0 instructions: 42000002 cycles: 63644285 heartbeat IPC: 0.336307 cumulative IPC: 0.336499 (Simulation time: 0 hr 2 min 13 sec) 
updateCurrDst(58812)
updateCurrDst(58875)
updateCurrDst(58922)
updateCurrDst(58934)
updateCurrDst(59034)
updateCurrDst(59155)
updateCurrDst(59194)
updateCurrDst(59287)
updateCurrDst(59351)
updateCurrDst(59559)
updateCurrDst(59580)
updateCurrDst(59865)
updateCurrDst(59882)
updateCurrDst(59893)
updateCurrDst(59937)
updateCurrDst(59939)
updateCurrDst(59996)
updateCurrDst(60163)
Heartbeat CPU 0 instructions: 43000001 cycles: 66615889 heartbeat IPC: 0.336518 cumulative IPC: 0.3365 (Simulation time: 0 hr 2 min 16 sec) 
updateCurrDst(60281)
updateCurrDst(60685)
updateCurrDst(60697)
updateCurrDst(60877)
updateCurrDst(60879)
updateCurrDst(60958)
updateCurrDst(60986)
updateCurrDst(61101)
updateCurrDst(61112)
updateCurrDst(61173)
updateCurrDst(61181)
updateCurrDst(61210)
updateCurrDst(61397)
updateCurrDst(61399)
updateCurrDst(61468)
updateCurrDst(61480)
updateCurrDst(61586)
updateCurrDst(61735)
Heartbeat CPU 0 instructions: 44000000 cycles: 69587382 heartbeat IPC: 0.336531 cumulative IPC: 0.336501 (Simulation time: 0 hr 2 min 20 sec) 
updateCurrDst(61803)
updateCurrDst(61823)
updateCurrDst(61929)
updateCurrDst(61988)
updateCurrDst(62035)
updateCurrDst(62101)
updateCurrDst(62179)
updateCurrDst(62253)
updateCurrDst(62283)
updateCurrDst(62396)
updateCurrDst(62568)
updateCurrDst(62588)
updateCurrDst(62646)
updateCurrDst(62713)
updateCurrDst(62810)
updateCurrDst(62819)
updateCurrDst(63018)
updateCurrDst(63130)
updateCurrDst(63156)
Heartbeat CPU 0 instructions: 45000000 cycles: 72559195 heartbeat IPC: 0.336495 cumulative IPC: 0.336501 (Simulation time: 0 hr 2 min 23 sec) 
updateCurrDst(63364)
updateCurrDst(63376)
updateCurrDst(63389)
updateCurrDst(63721)
updateCurrDst(63954)
updateCurrDst(63976)
updateCurrDst(64004)
updateCurrDst(64089)
updateCurrDst(64299)
updateCurrDst(64564)
updateCurrDst(64645)
*** Reached end of trace for Core: 0 Repeating trace: ./tracer/pull_u16_k5.xzafter: 46000000
Heartbeat CPU 0 instructions: 46000000 cycles: 75532586 heartbeat IPC: 0.336316 cumulative IPC: 0.336493 (Simulation time: 0 hr 2 min 26 sec) 
Finished CPU 0 instructions: 23000001 cycles: 68352093 cumulative IPC: 0.336493 (Simulation time: 0 hr 2 min 26 sec) 

ChampSim completed all CPUs

Region of Interest Statistics

CPU 0 cumulative IPC: 0.336493 instructions: 23000001 cycles: 68352093

Total ROB STALLS:                    9015379
STLB MISS ROB STALLS:                    333
L1D  LOAD MISS ROB STALLS:            311992  Translation MISS ROB STALLS:             0
L2C  LOAD MISS ROB STALLS:             27788  Translation MISS ROB STALLS:             0
LLC  LOAD MISS ROB STALLS:             21395  Translation MISS ROB STALLS:             0

ITLB TOTAL     ACCESS:           3041993  HIT:    3041993  MISS:          0  HIT %:        100  MISS %:          0   MPKI: 0
ITLB LOAD TRANSLATION ACCESS:    3041993  HIT:    3041993  MISS:          0  HIT %:        100  MISS %:          0   MPKI: 0
ITLB AVERAGE MISS LATENCY:          -nan cycles
ITLB RQ ACCESS:     3246838	FORWARD:           0	MERGED:       204845	TO_CACHE:    3041993

DTLB TOTAL     ACCESS:           6837087  HIT:    6808138  MISS:      28949  HIT %:    99.5766  MISS %:   0.423411   MPKI: 1.25865
DTLB LOAD TRANSLATION ACCESS:    6837087  HIT:    6808138  MISS:      28949  HIT %:    99.5766  MISS %:   0.423411   MPKI: 1.25865
DTLB AVERAGE MISS LATENCY:       11.8872 cycles
DTLB RQ ACCESS:     9414298	FORWARD:           0	MERGED:      2577211	TO_CACHE:    6837087

STLB TOTAL     ACCESS:             28949  HIT:      28616  MISS:        333  HIT %:    98.8497  MISS %:     1.1503   MPKI: 0.0144783
STLB LOAD TRANSLATION ACCESS:      28949  HIT:      28616  MISS:        333  HIT %:    98.8497  MISS %:     1.1503   MPKI: 0.0144783
STLB AVERAGE MISS LATENCY:           251 cycles
STLB RQ ACCESS:       28949	FORWARD:           0	MERGED:            0	TO_CACHE:      28949

PSCL5 TOTAL     ACCESS:               333  HIT:        333  MISS:          0  HIT %:        100  MISS %:          0   MPKI: 0
PSCL5 LOAD TRANSLATION ACCESS:        333  HIT:        333  MISS:          0  HIT %:        100  MISS %:          0   MPKI: 0

PSCL4 TOTAL     ACCESS:               333  HIT:        333  MISS:          0  HIT %:        100  MISS %:          0   MPKI: 0
PSCL4 LOAD TRANSLATION ACCESS:        333  HIT:        333  MISS:          0  HIT %:        100  MISS %:          0   MPKI: 0

PSCL3 TOTAL     ACCESS:               333  HIT:        333  MISS:          0  HIT %:        100  MISS %:          0   MPKI: 0
PSCL3 LOAD TRANSLATION ACCESS:        333  HIT:        333  MISS:          0  HIT %:        100  MISS %:          0   MPKI: 0

PSCL2 TOTAL     ACCESS:               333  HIT:        333  MISS:          0  HIT %:        100  MISS %:          0   MPKI: 0
PSCL2 LOAD TRANSLATION ACCESS:        333  HIT:        333  MISS:          0  HIT %:        100  MISS %:          0   MPKI: 0

L1D TOTAL     ACCESS:           9414298  HIT:    9102307  MISS:     311991  HIT %:     96.686  MISS %:    3.31401   MPKI: 13.5648  USED:      75610  UNUSED:     236381
L1D LOAD      ACCESS:           4117121  HIT:    3805130  MISS:     311991  HIT %:    92.4221  MISS %:    7.57789   MPKI: 13.5648  USED:      75610  UNUSED:     236381
L1D RFO       ACCESS:           5297177  HIT:    5297177  MISS:          0  HIT %:        100  MISS %:          0   MPKI: 0
L1D PTL1 TRANSLATION ACCESS:          0  HIT:          0  MISS:          0  HIT %:       -nan  MISS %:       -nan   MPKI: 0
L1D PTL2 TRANSLATION ACCESS:          0  HIT:          0  MISS:          0  HIT %:       -nan  MISS %:       -nan   MPKI: 0
L1D PTL3 TRANSLATION ACCESS:          0  HIT:          0  MISS:          0  HIT %:       -nan  MISS %:       -nan   MPKI: 0
L1D PTL4 TRANSLATION ACCESS:          0  HIT:          0  MISS:          0  HIT %:       -nan  MISS %:       -nan   MPKI: 0
L1D PTL5 TRANSLATION ACCESS:          0  HIT:          0  MISS:          0  HIT %:       -nan  MISS %:       -nan   MPKI: 0
L1D TOTAL EVICTIONS:             311991  TRANSLATION EVICTIONS:          0  TRANSLATION EVICTING TRANSALTION:          0  TRANSLATION EVICTING LOAD:          0  LOAD EVICTING TRANSALTION:          0  LOAD EVICTING LOAD:      311991
L1D AVERAGE MISS LATENCY:       22.6741 cycles  AVERAGE LOAD MISS LATENCY:       22.6741 cycles  AVERAGE LOAD TRANSLATION MISS LATENCY:          -nan cycles
L1D RQ ACCESS:     5847664	FORWARD:           0	MERGED:      1160562	TO_CACHE:    4117122
L1D WQ ACCESS:     5297187	FORWARD:      569980	MERGED:           11	TO_CACHE:    5297176

L1I TOTAL     ACCESS:           3246838  HIT:    3246838  MISS:          0  HIT %:        100  MISS %:          0   MPKI: 0
L1I LOAD      ACCESS:           3246838  HIT:    3246838  MISS:          0  HIT %:        100  MISS %:          0   MPKI: 0
L1I AVERAGE MISS LATENCY:          -nan cycles
L1I RQ ACCESS:     5195968	FORWARD:           0	MERGED:      1949130	TO_CACHE:    3246838

L2C TOTAL     ACCESS:            314126  HIT:     286339  MISS:      27787  HIT %:    91.1542  MISS %:    8.84581   MPKI: 1.20813  USED:         20  UNUSED:      27767
L2C LOAD      ACCESS:            311991  HIT:     284204  MISS:      27787  HIT %:    91.0937  MISS %:    8.90635   MPKI: 1.20813  USED:          9  UNUSED:      27767
L2C WRITEBACK ACCESS:              2135  HIT:       2135  MISS:          0  HIT %:        100  MISS %:          0   MPKI: 0
L2C PTL1 TRANSLATION ACCESS:          0  HIT:          0  MISS:          0  HIT %:       -nan  MISS %:       -nan   MPKI: 0
L2C PTL2 TRANSLATION ACCESS:          0  HIT:          0  MISS:          0  HIT %:       -nan  MISS %:       -nan   MPKI: 0
L2C PTL3 TRANSLATION ACCESS:          0  HIT:          0  MISS:          0  HIT %:       -nan  MISS %:       -nan   MPKI: 0
L2C PTL4 TRANSLATION ACCESS:          0  HIT:          0  MISS:          0  HIT %:       -nan  MISS %:       -nan   MPKI: 0
L2C PTL5 TRANSLATION ACCESS:          0  HIT:          0  MISS:          0  HIT %:       -nan  MISS %:       -nan   MPKI: 0
L2C TOTAL EVICTIONS:              27787  TRANSLATION EVICTIONS:          0  TRANSLATION EVICTING TRANSALTION:          0  TRANSLATION EVICTING LOAD:          0  LOAD EVICTING TRANSALTION:          0  LOAD EVICTING LOAD:       27776
L2C AVERAGE MISS LATENCY:       86.1648 cycles  AVERAGE LOAD MISS LATENCY:       86.1648 cycles  AVERAGE LOAD TRANSLATION MISS LATENCY:          -nan cycles
L2C RQ ACCESS:      311992	FORWARD:           0	MERGED:            0	TO_CACHE:     311992
L2C WQ ACCESS:        2135	FORWARD:           0	MERGED:            0	TO_CACHE:       2135

LLC TOTAL     ACCESS:             29812  HIT:       8385  MISS:      21427  HIT %:    28.1263  MISS %:    71.8737   MPKI: 0.931609  USED:          0  UNUSED:          0
LLC LOAD      ACCESS:             27787  HIT:       6392  MISS:      21395  HIT %:    23.0036  MISS %:    76.9964   MPKI: 0.930217  USED:          0  UNUSED:          0
LLC WRITEBACK ACCESS:              2025  HIT:       1993  MISS:         32  HIT %:    98.4198  MISS %:    1.58025   MPKI: 0.0013913
LLC PTL1 TRANSLATION ACCESS:          0  HIT:          0  MISS:          0  HIT %:       -nan  MISS %:       -nan   MPKI: 0
LLC PTL2 TRANSLATION ACCESS:          0  HIT:          0  MISS:          0  HIT %:       -nan  MISS %:       -nan   MPKI: 0
LLC PTL3 TRANSLATION ACCESS:          0  HIT:          0  MISS:          0  HIT %:       -nan  MISS %:       -nan   MPKI: 0
LLC PTL4 TRANSLATION ACCESS:          0  HIT:          0  MISS:          0  HIT %:       -nan  MISS %:       -nan   MPKI: 0
LLC PTL5 TRANSLATION ACCESS:          0  HIT:          0  MISS:          0  HIT %:       -nan  MISS %:       -nan   MPKI: 0
LLC TOTAL EVICTIONS:                  0  TRANSLATION EVICTIONS:          0  TRANSLATION EVICTING TRANSALTION:          0  TRANSLATION EVICTING LOAD:          0  LOAD EVICTING TRANSALTION:          0  LOAD EVICTING LOAD:           0
LLC AVERAGE MISS LATENCY:       72.8357 cycles  AVERAGE LOAD MISS LATENCY:       72.9446 cycles  AVERAGE LOAD TRANSLATION MISS LATENCY:          -nan cycles
LLC RQ ACCESS:       27788	FORWARD:           0	MERGED:            0	TO_CACHE:      27788
LLC WQ ACCESS:        2025	FORWARD:           0	MERGED:            0	TO_CACHE:       2025


RAW hits: 3994738
Loads Generated: 9842402
Loads sent to L1D: 5847664
Stores Generated: 5297186
Stores sent to L1D: 5297187
Major fault: 0 Minor fault: 1101
Allocated PAGES: 1101
IRREG DATA L1D ACCESS: 647119
L2C ACCESSES: 537993
L2C MISSES: 1076
Total LLC accesses: 62281
Total Irreg accesses: 1971

DRAM Statistics
 CHANNEL 0
 RQ ROW_BUFFER_HIT:      20765  ROW_BUFFER_MISS:        963
 DBUS_CONGESTED:          0
 WQ ROW_BUFFER_HIT:          0  ROW_BUFFER_MISS:         37  FULL:          0

 AVG_CONGESTED_CYCLE: -

CPU 0 Branch Prediction Accuracy: 98.7921% MPKI: 1.48961 Average ROB Occupancy at Mispredict: 16.2057
Branch types
NOT_BRANCH: 20163137 87.6658%
BRANCH_DIRECT_JUMP: 0 0%
BRANCH_INDIRECT: 375881 1.63427%
BRANCH_CONDITIONAL: 0 0%
BRANCH_DIRECT_CALL: 34189 0.148648%
BRANCH_INDIRECT_CALL: 956893 4.1604%
BRANCH_RETURN: 991082 4.30905%
BRANCH_OTHER: 478448 2.08021%

DRAM PAGES: 1048576
Allocated PAGES: 1101
