
*** ChampSim Multicore Out-of-Order Simulator ***

Warmup Instructions: 23000000
Simulation Instructions: 23000000
Number of CPUs: 1
LLC sets: 2048
LLC ways: 16
Off-chip DRAM Size: 4096 MB Channels: 1 Width: 64-bit Data Rate: 6400 MT/s
CPU 0 runs ./tracer/pull_u16_k5.xz
.xz
BTB has LRU replacement policy
ITLB has LRU replacement policy
DTLB has LRU replacement policy
STLB has LRU replacement policy
L1I has LRU replacement policy
L1D has LRU replacement policy
L2C has LRU replacement policy
LLC has LRU replacement policy
Heartbeat CPU 0 instructions: 1000000 cycles: 350520 heartbeat IPC: 2.8529 cumulative IPC: 2.8529 (Simulation time: 0 hr 0 min 3 sec) 
PIN_registerGraphs(random_u16_k5.sg,1)
Graphh Number of Nodes: 65536
Heartbeat CPU 0 instructions: 2000000 cycles: 690866 heartbeat IPC: 2.93819 cumulative IPC: 2.89492 (Simulation time: 0 hr 0 min 5 sec) 
PIN_updateRegBaseBound( 94227135865040, 94227136127184)
updateCurrDst(9)
updateCurrDst(194)
updateCurrDst(229)
Heartbeat CPU 0 instructions: 3000002 cycles: 1011169 heartbeat IPC: 3.12205 cumulative IPC: 2.96687 (Simulation time: 0 hr 0 min 8 sec) 
updateCurrDst(849)
updateCurrDst(1086)
updateCurrDst(1478)
updateCurrDst(1589)
updateCurrDst(1710)
updateCurrDst(1900)
updateCurrDst(1923)
updateCurrDst(2074)
updateCurrDst(2216)
Heartbeat CPU 0 instructions: 4000001 cycles: 1319700 heartbeat IPC: 3.24116 cumulative IPC: 3.03099 (Simulation time: 0 hr 0 min 11 sec) 
updateCurrDst(2382)
updateCurrDst(2383)
updateCurrDst(2496)
updateCurrDst(2542)
updateCurrDst(2605)
updateCurrDst(2636)
updateCurrDst(2653)
updateCurrDst(2838)
updateCurrDst(2870)
updateCurrDst(2915)
updateCurrDst(3153)
updateCurrDst(3416)
updateCurrDst(3471)
updateCurrDst(3483)
updateCurrDst(3665)
updateCurrDst(3705)
updateCurrDst(3775)
Heartbeat CPU 0 instructions: 5000000 cycles: 1628379 heartbeat IPC: 3.23961 cumulative IPC: 3.07054 (Simulation time: 0 hr 0 min 15 sec) 
updateCurrDst(3823)
updateCurrDst(3957)
updateCurrDst(4146)
updateCurrDst(4244)
updateCurrDst(4318)
updateCurrDst(4325)
updateCurrDst(4411)
updateCurrDst(4938)
updateCurrDst(4939)
updateCurrDst(5185)
Heartbeat CPU 0 instructions: 6000003 cycles: 1936573 heartbeat IPC: 3.24472 cumulative IPC: 3.09826 (Simulation time: 0 hr 0 min 18 sec) 
updateCurrDst(5283)
updateCurrDst(5367)
updateCurrDst(5371)
updateCurrDst(5671)
updateCurrDst(5704)
updateCurrDst(5793)
updateCurrDst(5906)
updateCurrDst(5910)
updateCurrDst(5996)
updateCurrDst(6060)
updateCurrDst(6062)
updateCurrDst(6175)
updateCurrDst(6288)
updateCurrDst(6326)
updateCurrDst(6360)
updateCurrDst(6454)
updateCurrDst(6502)
updateCurrDst(6506)
Heartbeat CPU 0 instructions: 7000000 cycles: 2245371 heartbeat IPC: 3.23835 cumulative IPC: 3.11752 (Simulation time: 0 hr 0 min 22 sec) 
updateCurrDst(6792)
updateCurrDst(6929)
updateCurrDst(7048)
updateCurrDst(7363)
updateCurrDst(7384)
updateCurrDst(7714)
updateCurrDst(7747)
updateCurrDst(7804)
updateCurrDst(7863)
updateCurrDst(7895)
updateCurrDst(7978)
updateCurrDst(8000)
updateCurrDst(8038)
updateCurrDst(8048)
Heartbeat CPU 0 instructions: 8000002 cycles: 2553763 heartbeat IPC: 3.24263 cumulative IPC: 3.13263 (Simulation time: 0 hr 0 min 26 sec) 
updateCurrDst(8251)
updateCurrDst(8255)
updateCurrDst(8334)
updateCurrDst(8442)
updateCurrDst(8647)
updateCurrDst(8674)
updateCurrDst(8694)
updateCurrDst(8766)
updateCurrDst(8833)
updateCurrDst(8860)
updateCurrDst(9010)
updateCurrDst(9032)
updateCurrDst(9098)
updateCurrDst(9147)
updateCurrDst(9339)
updateCurrDst(9357)
updateCurrDst(9444)
updateCurrDst(9493)
updateCurrDst(9507)
updateCurrDst(9543)
Heartbeat CPU 0 instructions: 9000001 cycles: 2862066 heartbeat IPC: 3.24356 cumulative IPC: 3.14458 (Simulation time: 0 hr 0 min 29 sec) 
updateCurrDst(9739)
updateCurrDst(9743)
updateCurrDst(9860)
updateCurrDst(9891)
updateCurrDst(10032)
updateCurrDst(10106)
updateCurrDst(10310)
updateCurrDst(10331)
updateCurrDst(10340)
updateCurrDst(10484)
updateCurrDst(10490)
updateCurrDst(10745)
updateCurrDst(10810)
updateCurrDst(10863)
updateCurrDst(11205)
Heartbeat CPU 0 instructions: 10000001 cycles: 3170489 heartbeat IPC: 3.2423 cumulative IPC: 3.15409 (Simulation time: 0 hr 0 min 32 sec) 
updateCurrDst(11207)
updateCurrDst(11278)
updateCurrDst(11385)
updateCurrDst(11422)
updateCurrDst(11446)
updateCurrDst(11487)
updateCurrDst(11519)
updateCurrDst(11638)
updateCurrDst(11649)
updateCurrDst(11666)
updateCurrDst(12047)
updateCurrDst(12088)
updateCurrDst(12235)
updateCurrDst(12364)
updateCurrDst(12425)
updateCurrDst(12429)
updateCurrDst(12529)
updateCurrDst(12534)
Heartbeat CPU 0 instructions: 11000000 cycles: 3478799 heartbeat IPC: 3.24349 cumulative IPC: 3.16201 (Simulation time: 0 hr 0 min 35 sec) 
updateCurrDst(12795)
updateCurrDst(12848)
updateCurrDst(12919)
updateCurrDst(12980)
updateCurrDst(13102)
updateCurrDst(13186)
updateCurrDst(13260)
updateCurrDst(13396)
updateCurrDst(13507)
updateCurrDst(13564)
updateCurrDst(13594)
updateCurrDst(13661)
updateCurrDst(13690)
Heartbeat CPU 0 instructions: 12000003 cycles: 3787395 heartbeat IPC: 3.24049 cumulative IPC: 3.16841 (Simulation time: 0 hr 0 min 39 sec) 
updateCurrDst(14434)
updateCurrDst(14510)
updateCurrDst(14578)
updateCurrDst(14594)
updateCurrDst(14610)
updateCurrDst(14638)
updateCurrDst(14688)
updateCurrDst(14787)
updateCurrDst(15001)
updateCurrDst(15009)
updateCurrDst(15053)
updateCurrDst(15178)
updateCurrDst(15254)
updateCurrDst(15276)
updateCurrDst(15425)
updateCurrDst(15521)
updateCurrDst(15584)
Heartbeat CPU 0 instructions: 13000001 cycles: 4095617 heartbeat IPC: 3.24441 cumulative IPC: 3.17413 (Simulation time: 0 hr 0 min 42 sec) 
updateCurrDst(15692)
updateCurrDst(15812)
updateCurrDst(15833)
updateCurrDst(15990)
updateCurrDst(16310)
updateCurrDst(16335)
updateCurrDst(16577)
updateCurrDst(16656)
updateCurrDst(16674)
updateCurrDst(16701)
updateCurrDst(16734)
updateCurrDst(16784)
updateCurrDst(16884)
updateCurrDst(17108)
updateCurrDst(17133)
Heartbeat CPU 0 instructions: 14000000 cycles: 4404058 heartbeat IPC: 3.24211 cumulative IPC: 3.17889 (Simulation time: 0 hr 0 min 45 sec) 
updateCurrDst(17170)
updateCurrDst(17179)
updateCurrDst(17243)
updateCurrDst(17284)
updateCurrDst(17359)
updateCurrDst(17415)
updateCurrDst(17595)
updateCurrDst(17644)
updateCurrDst(17761)
updateCurrDst(17770)
updateCurrDst(17794)
updateCurrDst(17917)
updateCurrDst(17930)
updateCurrDst(17965)
updateCurrDst(17968)
updateCurrDst(17972)
updateCurrDst(18264)
updateCurrDst(18440)
updateCurrDst(18545)
updateCurrDst(18601)
Heartbeat CPU 0 instructions: 15000001 cycles: 4712317 heartbeat IPC: 3.24403 cumulative IPC: 3.18315 (Simulation time: 0 hr 0 min 48 sec) 
updateCurrDst(18696)
updateCurrDst(18715)
updateCurrDst(18769)
updateCurrDst(19021)
updateCurrDst(19070)
updateCurrDst(19132)
updateCurrDst(19192)
updateCurrDst(19299)
updateCurrDst(19401)
updateCurrDst(19425)
updateCurrDst(19438)
updateCurrDst(19570)
updateCurrDst(19622)
updateCurrDst(19827)
updateCurrDst(19897)
updateCurrDst(19907)
updateCurrDst(20057)
Heartbeat CPU 0 instructions: 16000003 cycles: 5020934 heartbeat IPC: 3.24027 cumulative IPC: 3.18666 (Simulation time: 0 hr 0 min 52 sec) 
updateCurrDst(20225)
updateCurrDst(20246)
updateCurrDst(20293)
updateCurrDst(20364)
updateCurrDst(20386)
updateCurrDst(20439)
updateCurrDst(20484)
updateCurrDst(20499)
updateCurrDst(20554)
updateCurrDst(20572)
updateCurrDst(20736)
updateCurrDst(20817)
updateCurrDst(20849)
updateCurrDst(20958)
updateCurrDst(21044)
updateCurrDst(21090)
updateCurrDst(21123)
updateCurrDst(21228)
updateCurrDst(21243)
updateCurrDst(21282)
updateCurrDst(21284)
updateCurrDst(21307)
updateCurrDst(21370)
Heartbeat CPU 0 instructions: 17000002 cycles: 5329516 heartbeat IPC: 3.24063 cumulative IPC: 3.18978 (Simulation time: 0 hr 0 min 55 sec) 
updateCurrDst(21678)
updateCurrDst(21683)
updateCurrDst(21713)
updateCurrDst(21762)
updateCurrDst(21953)
updateCurrDst(21966)
updateCurrDst(22090)
updateCurrDst(22161)
updateCurrDst(22403)
updateCurrDst(22487)
updateCurrDst(22565)
updateCurrDst(22605)
updateCurrDst(22634)
updateCurrDst(22643)
updateCurrDst(22735)
updateCurrDst(22821)
updateCurrDst(22851)
updateCurrDst(22867)
updateCurrDst(22946)
updateCurrDst(22995)
updateCurrDst(23031)
Heartbeat CPU 0 instructions: 18000000 cycles: 5637903 heartbeat IPC: 3.24267 cumulative IPC: 3.19268 (Simulation time: 0 hr 0 min 58 sec) 
updateCurrDst(23216)
updateCurrDst(23278)
updateCurrDst(23409)
updateCurrDst(23443)
updateCurrDst(23451)
updateCurrDst(23452)
updateCurrDst(23474)
updateCurrDst(23484)
updateCurrDst(23624)
updateCurrDst(23650)
updateCurrDst(23780)
updateCurrDst(23896)
updateCurrDst(23919)
updateCurrDst(24039)
updateCurrDst(24191)
updateCurrDst(24248)
updateCurrDst(24422)
Heartbeat CPU 0 instructions: 19000002 cycles: 5946205 heartbeat IPC: 3.24358 cumulative IPC: 3.19532 (Simulation time: 0 hr 1 min 1 sec) 
updateCurrDst(24571)
updateCurrDst(24748)
updateCurrDst(24850)
updateCurrDst(24950)
updateCurrDst(25056)
updateCurrDst(25074)
updateCurrDst(25100)
updateCurrDst(25111)
updateCurrDst(25186)
updateCurrDst(25210)
updateCurrDst(25261)
updateCurrDst(25286)
updateCurrDst(25363)
updateCurrDst(25430)
updateCurrDst(25433)
updateCurrDst(25469)
updateCurrDst(25510)
updateCurrDst(25835)
updateCurrDst(25859)
updateCurrDst(25892)
updateCurrDst(26024)
updateCurrDst(26035)
Heartbeat CPU 0 instructions: 20000000 cycles: 6254842 heartbeat IPC: 3.24005 cumulative IPC: 3.19752 (Simulation time: 0 hr 1 min 4 sec) 
updateCurrDst(26072)
updateCurrDst(26079)
updateCurrDst(26083)
updateCurrDst(26163)
updateCurrDst(26203)
updateCurrDst(26206)
updateCurrDst(26265)
updateCurrDst(26376)
updateCurrDst(26655)
updateCurrDst(26717)
updateCurrDst(27002)
updateCurrDst(27114)
updateCurrDst(27122)
updateCurrDst(27167)
updateCurrDst(27182)
updateCurrDst(27198)
updateCurrDst(27458)
Heartbeat CPU 0 instructions: 21000000 cycles: 6563376 heartbeat IPC: 3.24113 cumulative IPC: 3.19957 (Simulation time: 0 hr 1 min 7 sec) 
updateCurrDst(27562)
updateCurrDst(27758)
updateCurrDst(27828)
updateCurrDst(27908)
updateCurrDst(27957)
updateCurrDst(28094)
updateCurrDst(28157)
updateCurrDst(28217)
updateCurrDst(28427)
updateCurrDst(28473)
updateCurrDst(28485)
updateCurrDst(28488)
updateCurrDst(28830)
updateCurrDst(28882)
Heartbeat CPU 0 instructions: 22000000 cycles: 6871890 heartbeat IPC: 3.24134 cumulative IPC: 3.20145 (Simulation time: 0 hr 1 min 9 sec) 
updateCurrDst(29119)
updateCurrDst(29164)
updateCurrDst(29250)
updateCurrDst(29282)
updateCurrDst(29325)
updateCurrDst(29461)
updateCurrDst(29582)
updateCurrDst(29615)
updateCurrDst(29943)
updateCurrDst(29984)
updateCurrDst(30099)
updateCurrDst(30216)
updateCurrDst(30228)
updateCurrDst(30334)
updateCurrDst(30362)
updateCurrDst(30496)
Heartbeat CPU 0 instructions: 23000001 cycles: 7180337 heartbeat IPC: 3.24205 cumulative IPC: 3.20319 (Simulation time: 0 hr 1 min 13 sec) 

Warmup complete CPU 0 instructions: 23000001 cycles: 7180337 (Simulation time: 0 hr 1 min 13 sec) 

updateCurrDst(30555)
updateCurrDst(30571)
updateCurrDst(30724)
updateCurrDst(30802)
updateCurrDst(30861)
updateCurrDst(30866)
updateCurrDst(31401)
updateCurrDst(31455)
updateCurrDst(31459)
updateCurrDst(31469)
updateCurrDst(31648)
updateCurrDst(31682)
updateCurrDst(31779)
updateCurrDst(31796)
updateCurrDst(31927)
updateCurrDst(31977)
Heartbeat CPU 0 instructions: 24000001 cycles: 10232438 heartbeat IPC: 0.327643 cumulative IPC: 0.327643 (Simulation time: 0 hr 1 min 16 sec) 
updateCurrDst(32087)
updateCurrDst(32405)
updateCurrDst(32590)
updateCurrDst(32634)
updateCurrDst(32757)
updateCurrDst(32765)
updateCurrDst(32823)
updateCurrDst(33015)
updateCurrDst(33049)
updateCurrDst(33107)
updateCurrDst(33123)
updateCurrDst(33172)
updateCurrDst(33362)
updateCurrDst(33403)
updateCurrDst(33465)
updateCurrDst(33501)
Heartbeat CPU 0 instructions: 25000000 cycles: 13279251 heartbeat IPC: 0.328211 cumulative IPC: 0.327927 (Simulation time: 0 hr 1 min 19 sec) 
updateCurrDst(33627)
updateCurrDst(33738)
updateCurrDst(33792)
updateCurrDst(33959)
updateCurrDst(33965)
updateCurrDst(34100)
updateCurrDst(34158)
updateCurrDst(34235)
updateCurrDst(34258)
updateCurrDst(34310)
updateCurrDst(34457)
updateCurrDst(34624)
updateCurrDst(34697)
updateCurrDst(34842)
updateCurrDst(34873)
updateCurrDst(34946)
Heartbeat CPU 0 instructions: 26000002 cycles: 16319878 heartbeat IPC: 0.32888 cumulative IPC: 0.328244 (Simulation time: 0 hr 1 min 22 sec) 
updateCurrDst(35046)
updateCurrDst(35170)
updateCurrDst(35376)
updateCurrDst(35404)
updateCurrDst(35538)
updateCurrDst(35559)
updateCurrDst(35678)
updateCurrDst(35712)
updateCurrDst(35815)
updateCurrDst(35951)
updateCurrDst(36017)
updateCurrDst(36049)
updateCurrDst(36284)
updateCurrDst(36430)
updateCurrDst(36464)
Heartbeat CPU 0 instructions: 27000000 cycles: 19374732 heartbeat IPC: 0.327347 cumulative IPC: 0.328019 (Simulation time: 0 hr 1 min 26 sec) 
updateCurrDst(36550)
updateCurrDst(36779)
updateCurrDst(37156)
updateCurrDst(37201)
updateCurrDst(37263)
updateCurrDst(37359)
updateCurrDst(37365)
updateCurrDst(37573)
updateCurrDst(37608)
updateCurrDst(37777)
updateCurrDst(37836)
updateCurrDst(37851)
Heartbeat CPU 0 instructions: 28000001 cycles: 22446081 heartbeat IPC: 0.32559 cumulative IPC: 0.327531 (Simulation time: 0 hr 1 min 29 sec) 
updateCurrDst(37980)
updateCurrDst(38140)
updateCurrDst(38211)
updateCurrDst(38270)
updateCurrDst(38292)
updateCurrDst(38349)
updateCurrDst(38430)
updateCurrDst(38460)
updateCurrDst(38684)
updateCurrDst(38733)
updateCurrDst(38749)
updateCurrDst(38800)
updateCurrDst(38804)
updateCurrDst(38876)
updateCurrDst(38912)
updateCurrDst(39149)
updateCurrDst(39204)
updateCurrDst(39302)
Heartbeat CPU 0 instructions: 29000001 cycles: 25494784 heartbeat IPC: 0.328008 cumulative IPC: 0.32761 (Simulation time: 0 hr 1 min 33 sec) 
updateCurrDst(39591)
updateCurrDst(39624)
updateCurrDst(39977)
updateCurrDst(40152)
updateCurrDst(40165)
updateCurrDst(40260)
updateCurrDst(40270)
updateCurrDst(40488)
updateCurrDst(40695)
updateCurrDst(40705)
Heartbeat CPU 0 instructions: 30000001 cycles: 28558357 heartbeat IPC: 0.326416 cumulative IPC: 0.327439 (Simulation time: 0 hr 1 min 36 sec) 
updateCurrDst(40981)
updateCurrDst(41142)
updateCurrDst(41422)
updateCurrDst(41487)
updateCurrDst(41598)
updateCurrDst(41771)
updateCurrDst(41846)
updateCurrDst(41862)
updateCurrDst(41892)
updateCurrDst(42057)
updateCurrDst(42285)
updateCurrDst(42364)
updateCurrDst(42423)
updateCurrDst(42425)
Heartbeat CPU 0 instructions: 31000002 cycles: 31649827 heartbeat IPC: 0.323471 cumulative IPC: 0.326938 (Simulation time: 0 hr 1 min 40 sec) 
updateCurrDst(42434)
updateCurrDst(42457)
updateCurrDst(42557)
updateCurrDst(42658)
updateCurrDst(42804)
updateCurrDst(42829)
updateCurrDst(42954)
updateCurrDst(43037)
updateCurrDst(43069)
updateCurrDst(43104)
updateCurrDst(43274)
updateCurrDst(43396)
updateCurrDst(43414)
updateCurrDst(43461)
updateCurrDst(43467)
updateCurrDst(43654)
updateCurrDst(43689)
updateCurrDst(43712)
updateCurrDst(43728)
updateCurrDst(43730)
updateCurrDst(43829)
Heartbeat CPU 0 instructions: 32000000 cycles: 34691463 heartbeat IPC: 0.32877 cumulative IPC: 0.32714 (Simulation time: 0 hr 1 min 44 sec) 
updateCurrDst(43946)
updateCurrDst(44178)
updateCurrDst(44183)
updateCurrDst(44198)
updateCurrDst(44337)
updateCurrDst(44544)
updateCurrDst(44594)
updateCurrDst(44661)
updateCurrDst(44814)
updateCurrDst(45017)
Heartbeat CPU 0 instructions: 33000000 cycles: 37734138 heartbeat IPC: 0.328658 cumulative IPC: 0.327291 (Simulation time: 0 hr 1 min 48 sec) 
updateCurrDst(45468)
updateCurrDst(45636)
updateCurrDst(45667)
updateCurrDst(45860)
updateCurrDst(45969)
updateCurrDst(45996)
updateCurrDst(46096)
updateCurrDst(46194)
updateCurrDst(46261)
updateCurrDst(46372)
updateCurrDst(46388)
updateCurrDst(46648)
updateCurrDst(46663)
updateCurrDst(46826)
updateCurrDst(46849)
Heartbeat CPU 0 instructions: 34000002 cycles: 40789245 heartbeat IPC: 0.327321 cumulative IPC: 0.327294 (Simulation time: 0 hr 1 min 51 sec) 
updateCurrDst(46911)
updateCurrDst(46956)
updateCurrDst(47007)
updateCurrDst(47080)
updateCurrDst(47181)
updateCurrDst(47203)
updateCurrDst(47291)
updateCurrDst(47355)
updateCurrDst(47393)
updateCurrDst(47471)
updateCurrDst(47563)
updateCurrDst(47601)
updateCurrDst(47661)
updateCurrDst(47693)
updateCurrDst(47742)
updateCurrDst(47761)
updateCurrDst(47838)
updateCurrDst(48037)
updateCurrDst(48062)
updateCurrDst(48248)
Heartbeat CPU 0 instructions: 35000001 cycles: 43832577 heartbeat IPC: 0.328587 cumulative IPC: 0.327402 (Simulation time: 0 hr 1 min 54 sec) 
updateCurrDst(48406)
updateCurrDst(48566)
updateCurrDst(48662)
updateCurrDst(48930)
updateCurrDst(49171)
updateCurrDst(49239)
updateCurrDst(49280)
updateCurrDst(49365)
updateCurrDst(49368)
updateCurrDst(49483)
updateCurrDst(49484)
updateCurrDst(49611)
updateCurrDst(49811)
Heartbeat CPU 0 instructions: 36000001 cycles: 46889488 heartbeat IPC: 0.327128 cumulative IPC: 0.32738 (Simulation time: 0 hr 1 min 57 sec) 
updateCurrDst(49864)
updateCurrDst(50181)
updateCurrDst(50259)
updateCurrDst(50525)
updateCurrDst(50756)
updateCurrDst(50773)
updateCurrDst(50800)
updateCurrDst(50849)
updateCurrDst(50919)
updateCurrDst(51009)
updateCurrDst(51093)
updateCurrDst(51228)
Heartbeat CPU 0 instructions: 37000001 cycles: 49930478 heartbeat IPC: 0.32884 cumulative IPC: 0.327484 (Simulation time: 0 hr 2 min 0 sec) 
updateCurrDst(51330)
updateCurrDst(51331)
updateCurrDst(51500)
updateCurrDst(51526)
updateCurrDst(51536)
updateCurrDst(51546)
updateCurrDst(51552)
updateCurrDst(51557)
updateCurrDst(51723)
updateCurrDst(51733)
updateCurrDst(51815)
updateCurrDst(51898)
updateCurrDst(51970)
updateCurrDst(52092)
updateCurrDst(52128)
updateCurrDst(52150)
updateCurrDst(52430)
updateCurrDst(52537)
updateCurrDst(52598)
updateCurrDst(52616)
updateCurrDst(52631)
updateCurrDst(52660)
Heartbeat CPU 0 instructions: 38000000 cycles: 52970942 heartbeat IPC: 0.328897 cumulative IPC: 0.327578 (Simulation time: 0 hr 2 min 4 sec) 
updateCurrDst(53651)
updateCurrDst(53661)
updateCurrDst(53669)
updateCurrDst(53692)
updateCurrDst(53731)
updateCurrDst(53794)
updateCurrDst(53901)
updateCurrDst(53978)
updateCurrDst(54094)
updateCurrDst(54175)
updateCurrDst(54234)
Heartbeat CPU 0 instructions: 39000001 cycles: 56026415 heartbeat IPC: 0.327282 cumulative IPC: 0.32756 (Simulation time: 0 hr 2 min 7 sec) 
updateCurrDst(54400)
updateCurrDst(54444)
updateCurrDst(54475)
updateCurrDst(54746)
updateCurrDst(54828)
updateCurrDst(54846)
updateCurrDst(54889)
updateCurrDst(55024)
updateCurrDst(55047)
updateCurrDst(55075)
updateCurrDst(55425)
updateCurrDst(55443)
updateCurrDst(55504)
updateCurrDst(55508)
updateCurrDst(55758)
Heartbeat CPU 0 instructions: 40000000 cycles: 59068638 heartbeat IPC: 0.328707 cumulative IPC: 0.327627 (Simulation time: 0 hr 2 min 10 sec) 
updateCurrDst(55817)
updateCurrDst(55828)
updateCurrDst(55937)
updateCurrDst(55941)
updateCurrDst(56156)
updateCurrDst(56159)
updateCurrDst(56445)
updateCurrDst(56516)
updateCurrDst(56824)
updateCurrDst(56871)
updateCurrDst(57144)
Heartbeat CPU 0 instructions: 41000000 cycles: 62123421 heartbeat IPC: 0.327356 cumulative IPC: 0.327612 (Simulation time: 0 hr 2 min 14 sec) 
updateCurrDst(57464)
updateCurrDst(57568)
updateCurrDst(57952)
updateCurrDst(57956)
updateCurrDst(58138)
updateCurrDst(58139)
updateCurrDst(58283)
updateCurrDst(58357)
updateCurrDst(58538)
updateCurrDst(58652)
updateCurrDst(58694)
updateCurrDst(58702)
Heartbeat CPU 0 instructions: 42000002 cycles: 65169788 heartbeat IPC: 0.328261 cumulative IPC: 0.327646 (Simulation time: 0 hr 2 min 17 sec) 
updateCurrDst(58779)
updateCurrDst(58821)
updateCurrDst(59071)
updateCurrDst(59261)
updateCurrDst(59276)
updateCurrDst(59285)
updateCurrDst(59401)
updateCurrDst(59490)
updateCurrDst(59526)
updateCurrDst(59541)
updateCurrDst(59613)
updateCurrDst(59808)
updateCurrDst(59810)
updateCurrDst(59900)
updateCurrDst(59971)
updateCurrDst(60059)
Heartbeat CPU 0 instructions: 43000001 cycles: 68216649 heartbeat IPC: 0.328206 cumulative IPC: 0.327674 (Simulation time: 0 hr 2 min 20 sec) 
updateCurrDst(60293)
updateCurrDst(60323)
updateCurrDst(60557)
updateCurrDst(60582)
updateCurrDst(60621)
updateCurrDst(60963)
updateCurrDst(61133)
updateCurrDst(61139)
updateCurrDst(61400)
updateCurrDst(61566)
updateCurrDst(61593)
updateCurrDst(61611)
Heartbeat CPU 0 instructions: 44000000 cycles: 71258776 heartbeat IPC: 0.328717 cumulative IPC: 0.327723 (Simulation time: 0 hr 2 min 23 sec) 
updateCurrDst(61886)
updateCurrDst(61934)
updateCurrDst(62003)
updateCurrDst(62034)
updateCurrDst(62047)
updateCurrDst(62101)
updateCurrDst(62151)
updateCurrDst(62203)
updateCurrDst(62352)
updateCurrDst(62544)
updateCurrDst(62574)
updateCurrDst(62609)
updateCurrDst(62759)
updateCurrDst(62761)
updateCurrDst(62801)
updateCurrDst(62870)
updateCurrDst(62884)
updateCurrDst(63070)
updateCurrDst(63126)
Heartbeat CPU 0 instructions: 45000000 cycles: 74318220 heartbeat IPC: 0.326857 cumulative IPC: 0.327684 (Simulation time: 0 hr 2 min 26 sec) 
updateCurrDst(63232)
updateCurrDst(63575)
updateCurrDst(63598)
updateCurrDst(63704)
updateCurrDst(63755)
updateCurrDst(64290)
updateCurrDst(64373)
updateCurrDst(64527)
*** Reached end of trace for Core: 0 Repeating trace: ./tracer/pull_u16_k5.xzafter: 46000000
Heartbeat CPU 0 instructions: 46000000 cycles: 77360775 heartbeat IPC: 0.328671 cumulative IPC: 0.327727 (Simulation time: 0 hr 2 min 29 sec) 
Finished CPU 0 instructions: 23000001 cycles: 70180439 cumulative IPC: 0.327727 (Simulation time: 0 hr 2 min 29 sec) 

ChampSim completed all CPUs

Region of Interest Statistics

CPU 0 cumulative IPC: 0.327727 instructions: 23000001 cycles: 70180439

Total ROB STALLS:                    8995377
STLB MISS ROB STALLS:                    333
L1D  LOAD MISS ROB STALLS:            311992  Translation MISS ROB STALLS:             0
L2C  LOAD MISS ROB STALLS:             27788  Translation MISS ROB STALLS:             0
LLC  LOAD MISS ROB STALLS:             27326  Translation MISS ROB STALLS:             0

ITLB TOTAL     ACCESS:           3041993  HIT:    3041993  MISS:          0  HIT %:        100  MISS %:          0   MPKI: 0
ITLB LOAD TRANSLATION ACCESS:    3041993  HIT:    3041993  MISS:          0  HIT %:        100  MISS %:          0   MPKI: 0
ITLB AVERAGE MISS LATENCY:          -nan cycles
ITLB RQ ACCESS:     3246838	FORWARD:           0	MERGED:       204845	TO_CACHE:    3041993

DTLB TOTAL     ACCESS:           6837087  HIT:    6808138  MISS:      28949  HIT %:    99.5766  MISS %:   0.423411   MPKI: 1.25865
DTLB LOAD TRANSLATION ACCESS:    6837087  HIT:    6808138  MISS:      28949  HIT %:    99.5766  MISS %:   0.423411   MPKI: 1.25865
DTLB AVERAGE MISS LATENCY:       11.8872 cycles
DTLB RQ ACCESS:     9410406	FORWARD:           0	MERGED:      2573319	TO_CACHE:    6837087

STLB TOTAL     ACCESS:             28949  HIT:      28616  MISS:        333  HIT %:    98.8497  MISS %:     1.1503   MPKI: 0.0144783
STLB LOAD TRANSLATION ACCESS:      28949  HIT:      28616  MISS:        333  HIT %:    98.8497  MISS %:     1.1503   MPKI: 0.0144783
STLB AVERAGE MISS LATENCY:           251 cycles
STLB RQ ACCESS:       28949	FORWARD:           0	MERGED:            0	TO_CACHE:      28949

PSCL5 TOTAL     ACCESS:               333  HIT:        333  MISS:          0  HIT %:        100  MISS %:          0   MPKI: 0
PSCL5 LOAD TRANSLATION ACCESS:        333  HIT:        333  MISS:          0  HIT %:        100  MISS %:          0   MPKI: 0

PSCL4 TOTAL     ACCESS:               333  HIT:        333  MISS:          0  HIT %:        100  MISS %:          0   MPKI: 0
PSCL4 LOAD TRANSLATION ACCESS:        333  HIT:        333  MISS:          0  HIT %:        100  MISS %:          0   MPKI: 0

PSCL3 TOTAL     ACCESS:               333  HIT:        333  MISS:          0  HIT %:        100  MISS %:          0   MPKI: 0
PSCL3 LOAD TRANSLATION ACCESS:        333  HIT:        333  MISS:          0  HIT %:        100  MISS %:          0   MPKI: 0

PSCL2 TOTAL     ACCESS:               333  HIT:        333  MISS:          0  HIT %:        100  MISS %:          0   MPKI: 0
PSCL2 LOAD TRANSLATION ACCESS:        333  HIT:        333  MISS:          0  HIT %:        100  MISS %:          0   MPKI: 0

L1D TOTAL     ACCESS:           9410406  HIT:    9098415  MISS:     311991  HIT %:    96.6846  MISS %:    3.31538   MPKI: 13.5648  USED:      75610  UNUSED:     236381
L1D LOAD      ACCESS:           4117121  HIT:    3805130  MISS:     311991  HIT %:    92.4221  MISS %:    7.57789   MPKI: 13.5648  USED:      75610  UNUSED:     236381
L1D RFO       ACCESS:           5293285  HIT:    5293285  MISS:          0  HIT %:        100  MISS %:          0   MPKI: 0
L1D PTL1 TRANSLATION ACCESS:          0  HIT:          0  MISS:          0  HIT %:       -nan  MISS %:       -nan   MPKI: 0
L1D PTL2 TRANSLATION ACCESS:          0  HIT:          0  MISS:          0  HIT %:       -nan  MISS %:       -nan   MPKI: 0
L1D PTL3 TRANSLATION ACCESS:          0  HIT:          0  MISS:          0  HIT %:       -nan  MISS %:       -nan   MPKI: 0
L1D PTL4 TRANSLATION ACCESS:          0  HIT:          0  MISS:          0  HIT %:       -nan  MISS %:       -nan   MPKI: 0
L1D PTL5 TRANSLATION ACCESS:          0  HIT:          0  MISS:          0  HIT %:       -nan  MISS %:       -nan   MPKI: 0
L1D TOTAL EVICTIONS:             311991  TRANSLATION EVICTIONS:          0  TRANSLATION EVICTING TRANSALTION:          0  TRANSLATION EVICTING LOAD:          0  LOAD EVICTING TRANSALTION:          0  LOAD EVICTING LOAD:      311991
L1D AVERAGE MISS LATENCY:         28.72 cycles  AVERAGE LOAD MISS LATENCY:         28.72 cycles  AVERAGE LOAD TRANSLATION MISS LATENCY:          -nan cycles
L1D RQ ACCESS:     5847664	FORWARD:           0	MERGED:      1160562	TO_CACHE:    4117122
L1D WQ ACCESS:     5297187	FORWARD:      569980	MERGED:         3903	TO_CACHE:    5293284

L1I TOTAL     ACCESS:           3246838  HIT:    3246838  MISS:          0  HIT %:        100  MISS %:          0   MPKI: 0
L1I LOAD      ACCESS:           3246838  HIT:    3246838  MISS:          0  HIT %:        100  MISS %:          0   MPKI: 0
L1I AVERAGE MISS LATENCY:          -nan cycles
L1I RQ ACCESS:     5195968	FORWARD:           0	MERGED:      1949130	TO_CACHE:    3246838

L2C TOTAL     ACCESS:            314126  HIT:     286339  MISS:      27787  HIT %:    91.1542  MISS %:    8.84581   MPKI: 1.20813  USED:         20  UNUSED:      27767
L2C LOAD      ACCESS:            311991  HIT:     284204  MISS:      27787  HIT %:    91.0937  MISS %:    8.90635   MPKI: 1.20813  USED:          9  UNUSED:      27767
L2C WRITEBACK ACCESS:              2135  HIT:       2135  MISS:          0  HIT %:        100  MISS %:          0   MPKI: 0
L2C PTL1 TRANSLATION ACCESS:          0  HIT:          0  MISS:          0  HIT %:       -nan  MISS %:       -nan   MPKI: 0
L2C PTL2 TRANSLATION ACCESS:          0  HIT:          0  MISS:          0  HIT %:       -nan  MISS %:       -nan   MPKI: 0
L2C PTL3 TRANSLATION ACCESS:          0  HIT:          0  MISS:          0  HIT %:       -nan  MISS %:       -nan   MPKI: 0
L2C PTL4 TRANSLATION ACCESS:          0  HIT:          0  MISS:          0  HIT %:       -nan  MISS %:       -nan   MPKI: 0
L2C PTL5 TRANSLATION ACCESS:          0  HIT:          0  MISS:          0  HIT %:       -nan  MISS %:       -nan   MPKI: 0
L2C TOTAL EVICTIONS:              27787  TRANSLATION EVICTIONS:          0  TRANSLATION EVICTING TRANSALTION:          0  TRANSLATION EVICTING LOAD:          0  LOAD EVICTING TRANSALTION:          0  LOAD EVICTING LOAD:       27776
L2C AVERAGE MISS LATENCY:       154.048 cycles  AVERAGE LOAD MISS LATENCY:       154.048 cycles  AVERAGE LOAD TRANSLATION MISS LATENCY:          -nan cycles
L2C RQ ACCESS:      311992	FORWARD:           0	MERGED:            0	TO_CACHE:     311992
L2C WQ ACCESS:        2135	FORWARD:           0	MERGED:            0	TO_CACHE:       2135

LLC TOTAL     ACCESS:             29812  HIT:       2475  MISS:      27337  HIT %:    8.30203  MISS %:     91.698   MPKI: 1.18857  USED:       2681  UNUSED:      24656
LLC LOAD      ACCESS:             27787  HIT:        461  MISS:      27326  HIT %:    1.65905  MISS %:     98.341   MPKI: 1.18809  USED:          3  UNUSED:      18831
LLC WRITEBACK ACCESS:              2025  HIT:       2014  MISS:         11  HIT %:    99.4568  MISS %:    0.54321   MPKI: 0.000478261
LLC PTL1 TRANSLATION ACCESS:          0  HIT:          0  MISS:          0  HIT %:       -nan  MISS %:       -nan   MPKI: 0
LLC PTL2 TRANSLATION ACCESS:          0  HIT:          0  MISS:          0  HIT %:       -nan  MISS %:       -nan   MPKI: 0
LLC PTL3 TRANSLATION ACCESS:          0  HIT:          0  MISS:          0  HIT %:       -nan  MISS %:       -nan   MPKI: 0
LLC PTL4 TRANSLATION ACCESS:          0  HIT:          0  MISS:          0  HIT %:       -nan  MISS %:       -nan   MPKI: 0
LLC PTL5 TRANSLATION ACCESS:          0  HIT:          0  MISS:          0  HIT %:       -nan  MISS %:       -nan   MPKI: 0
LLC TOTAL EVICTIONS:              27337  TRANSLATION EVICTIONS:          0  TRANSLATION EVICTING TRANSALTION:          0  TRANSLATION EVICTING LOAD:          0  LOAD EVICTING TRANSALTION:          0  LOAD EVICTING LOAD:       18823
LLC AVERAGE MISS LATENCY:        126.09 cycles  AVERAGE LOAD MISS LATENCY:       126.141 cycles  AVERAGE LOAD TRANSLATION MISS LATENCY:          -nan cycles
LLC RQ ACCESS:       27788	FORWARD:           0	MERGED:            0	TO_CACHE:      27788
LLC WQ ACCESS:        2025	FORWARD:           0	MERGED:            0	TO_CACHE:       2025


RAW hits: 3994738
Loads Generated: 9842402
Loads sent to L1D: 5847664
Stores Generated: 5297186
Stores sent to L1D: 5297187
Major fault: 0 Minor fault: 1101
Allocated PAGES: 1101
IRREG DATA L1D ACCESS: 647119
L2C ACCESSES: 537993
L2C MISSES: 1076

DRAM Statistics
 CHANNEL 0
 RQ ROW_BUFFER_HIT:      11985  ROW_BUFFER_MISS:      15674
 DBUS_CONGESTED:          0
 WQ ROW_BUFFER_HIT:          0  ROW_BUFFER_MISS:       5495  FULL:          0

 AVG_CONGESTED_CYCLE: -

CPU 0 Branch Prediction Accuracy: 98.7921% MPKI: 1.48961 Average ROB Occupancy at Mispredict: 16.2057
Branch types
NOT_BRANCH: 20163137 87.6658%
BRANCH_DIRECT_JUMP: 0 0%
BRANCH_INDIRECT: 375881 1.63427%
BRANCH_CONDITIONAL: 0 0%
BRANCH_DIRECT_CALL: 34189 0.148648%
BRANCH_INDIRECT_CALL: 956893 4.1604%
BRANCH_RETURN: 991082 4.30905%
BRANCH_OTHER: 478448 2.08021%

DRAM PAGES: 1048576
Allocated PAGES: 1101
