
*** ChampSim Multicore Out-of-Order Simulator ***

Warmup Instructions: 50000000
Simulation Instructions: 60000000
Number of CPUs: 1
LLC sets: 2048
LLC ways: 16
Off-chip DRAM Size: 4096 MB Channels: 1 Width: 64-bit Data Rate: 6400 MT/s
CPU 0 runs testcases/pull_g18_k2.xz
.xz
BTB has LRU replacement policy
ITLB has LRU replacement policy
DTLB has LRU replacement policy
STLB has LRU replacement policy
L1I has LRU replacement policy
L1D has LRU replacement policy
L2C has LRU replacement policy
LLC has LRU replacement policy
PIN_registerGraphs(test_g18_k2.sg,1)
Graphh Number of Nodes: 262140
Heartbeat CPU 0 instructions: 1000003 cycles: 347856 heartbeat IPC: 2.87476 cumulative IPC: 2.87476 (Simulation time: 0 hr 0 min 6 sec) 
Heartbeat CPU 0 instructions: 2000003 cycles: 681190 heartbeat IPC: 2.99999 cumulative IPC: 2.93604 (Simulation time: 0 hr 0 min 9 sec) 
Heartbeat CPU 0 instructions: 3000002 cycles: 1014462 heartbeat IPC: 3.00055 cumulative IPC: 2.95723 (Simulation time: 0 hr 0 min 12 sec) 
Heartbeat CPU 0 instructions: 4000001 cycles: 1347794 heartbeat IPC: 3.00001 cumulative IPC: 2.96781 (Simulation time: 0 hr 0 min 17 sec) 
Heartbeat CPU 0 instructions: 5000002 cycles: 1681128 heartbeat IPC: 3 cumulative IPC: 2.97419 (Simulation time: 0 hr 0 min 20 sec) 
PIN_updateRegBaseBound( 94042230468752, 94042231517312)
updateCurrDst(191)
updateCurrDst(210)
updateCurrDst(296)
updateCurrDst(488)
updateCurrDst(624)
updateCurrDst(642)
updateCurrDst(934)
updateCurrDst(947)
updateCurrDst(1134)
updateCurrDst(1376)
updateCurrDst(1407)
updateCurrDst(1445)
updateCurrDst(1467)
updateCurrDst(1790)
updateCurrDst(1844)
updateCurrDst(1851)
updateCurrDst(1929)
updateCurrDst(2031)
updateCurrDst(2062)
updateCurrDst(2155)
updateCurrDst(2257)
updateCurrDst(2277)
Heartbeat CPU 0 instructions: 6000001 cycles: 2009103 heartbeat IPC: 3.04901 cumulative IPC: 2.98641 (Simulation time: 0 hr 0 min 27 sec) 
updateCurrDst(2517)
updateCurrDst(2823)
updateCurrDst(2847)
updateCurrDst(2929)
updateCurrDst(3165)
updateCurrDst(3268)
updateCurrDst(3347)
updateCurrDst(3383)
updateCurrDst(3428)
updateCurrDst(3476)
updateCurrDst(3572)
updateCurrDst(3650)
updateCurrDst(3737)
updateCurrDst(3791)
updateCurrDst(3860)
updateCurrDst(3867)
updateCurrDst(3908)
updateCurrDst(3981)
updateCurrDst(4120)
updateCurrDst(4210)
updateCurrDst(4238)
updateCurrDst(4373)
updateCurrDst(4794)
updateCurrDst(4807)
updateCurrDst(4838)
Heartbeat CPU 0 instructions: 7000002 cycles: 2332958 heartbeat IPC: 3.0878 cumulative IPC: 3.00048 (Simulation time: 0 hr 0 min 33 sec) 
updateCurrDst(5136)
updateCurrDst(5357)
updateCurrDst(5600)
updateCurrDst(5797)
updateCurrDst(5823)
updateCurrDst(5826)
updateCurrDst(5848)
updateCurrDst(5904)
updateCurrDst(5972)
updateCurrDst(6052)
updateCurrDst(6069)
updateCurrDst(6083)
updateCurrDst(6107)
updateCurrDst(6131)
updateCurrDst(6175)
updateCurrDst(6220)
updateCurrDst(6257)
updateCurrDst(6301)
updateCurrDst(6313)
updateCurrDst(6316)
updateCurrDst(6437)
updateCurrDst(6493)
updateCurrDst(6540)
updateCurrDst(6608)
updateCurrDst(6772)
updateCurrDst(6804)
updateCurrDst(6947)
updateCurrDst(6975)
updateCurrDst(7140)
updateCurrDst(7261)
updateCurrDst(7394)
Heartbeat CPU 0 instructions: 8000002 cycles: 2659195 heartbeat IPC: 3.06526 cumulative IPC: 3.00843 (Simulation time: 0 hr 0 min 40 sec) 
updateCurrDst(7733)
updateCurrDst(8073)
updateCurrDst(8239)
updateCurrDst(8251)
updateCurrDst(8262)
updateCurrDst(8328)
updateCurrDst(8781)
updateCurrDst(8839)
updateCurrDst(9012)
updateCurrDst(9158)
updateCurrDst(9330)
updateCurrDst(9597)
updateCurrDst(9702)
updateCurrDst(9875)
updateCurrDst(9907)
updateCurrDst(10163)
updateCurrDst(10349)
updateCurrDst(10362)
updateCurrDst(10398)
Heartbeat CPU 0 instructions: 9000001 cycles: 2990029 heartbeat IPC: 3.02266 cumulative IPC: 3.01 (Simulation time: 0 hr 0 min 47 sec) 
updateCurrDst(10460)
updateCurrDst(10477)
updateCurrDst(10677)
updateCurrDst(10847)
updateCurrDst(10922)
updateCurrDst(10953)
updateCurrDst(10970)
updateCurrDst(11040)
updateCurrDst(11103)
updateCurrDst(11437)
updateCurrDst(11483)
updateCurrDst(11517)
updateCurrDst(11650)
updateCurrDst(11754)
updateCurrDst(11780)
updateCurrDst(11893)
updateCurrDst(12178)
updateCurrDst(12282)
updateCurrDst(12396)
updateCurrDst(12413)
updateCurrDst(12467)
updateCurrDst(12480)
updateCurrDst(12532)
updateCurrDst(12639)
updateCurrDst(12671)
updateCurrDst(12806)
Heartbeat CPU 0 instructions: 10000000 cycles: 3316662 heartbeat IPC: 3.06154 cumulative IPC: 3.01508 (Simulation time: 0 hr 0 min 53 sec) 
updateCurrDst(13070)
updateCurrDst(13076)
updateCurrDst(13229)
updateCurrDst(13258)
updateCurrDst(13387)
updateCurrDst(13499)
updateCurrDst(13558)
updateCurrDst(13577)
updateCurrDst(13628)
updateCurrDst(13653)
updateCurrDst(13845)
updateCurrDst(13884)
updateCurrDst(13920)
updateCurrDst(14115)
updateCurrDst(14117)
updateCurrDst(14169)
updateCurrDst(14290)
updateCurrDst(14333)
updateCurrDst(14443)
updateCurrDst(14487)
updateCurrDst(14527)
updateCurrDst(14530)
updateCurrDst(14537)
updateCurrDst(14550)
updateCurrDst(14595)
updateCurrDst(14599)
updateCurrDst(14659)
updateCurrDst(15011)
updateCurrDst(15144)
updateCurrDst(15151)
updateCurrDst(15165)
updateCurrDst(15233)
updateCurrDst(15285)
updateCurrDst(15293)
updateCurrDst(15296)
Heartbeat CPU 0 instructions: 11000000 cycles: 3640574 heartbeat IPC: 3.08726 cumulative IPC: 3.0215 (Simulation time: 0 hr 1 min 0 sec) 
updateCurrDst(15490)
updateCurrDst(15521)
updateCurrDst(15550)
updateCurrDst(15641)
updateCurrDst(15851)
updateCurrDst(16030)
updateCurrDst(16070)
updateCurrDst(16298)
updateCurrDst(16327)
updateCurrDst(16345)
updateCurrDst(16403)
updateCurrDst(16566)
updateCurrDst(16692)
updateCurrDst(16917)
updateCurrDst(17007)
updateCurrDst(17066)
updateCurrDst(17249)
updateCurrDst(17250)
updateCurrDst(17262)
updateCurrDst(17280)
updateCurrDst(17294)
updateCurrDst(17299)
updateCurrDst(17503)
updateCurrDst(17567)
Heartbeat CPU 0 instructions: 12000000 cycles: 3963883 heartbeat IPC: 3.09302 cumulative IPC: 3.02733 (Simulation time: 0 hr 1 min 9 sec) 
updateCurrDst(18057)
updateCurrDst(18408)
updateCurrDst(18456)
updateCurrDst(18489)
updateCurrDst(18491)
updateCurrDst(18513)
updateCurrDst(18526)
updateCurrDst(18634)
updateCurrDst(18790)
updateCurrDst(18834)
updateCurrDst(19197)
updateCurrDst(19252)
updateCurrDst(19366)
updateCurrDst(19501)
updateCurrDst(19577)
updateCurrDst(19668)
updateCurrDst(19710)
updateCurrDst(19801)
updateCurrDst(19811)
updateCurrDst(19947)
Heartbeat CPU 0 instructions: 13000002 cycles: 4287063 heartbeat IPC: 3.09426 cumulative IPC: 3.03238 (Simulation time: 0 hr 1 min 17 sec) 
updateCurrDst(20210)
updateCurrDst(20247)
updateCurrDst(20285)
updateCurrDst(20314)
updateCurrDst(20486)
updateCurrDst(20625)
updateCurrDst(20744)
updateCurrDst(20877)
updateCurrDst(20977)
updateCurrDst(21155)
updateCurrDst(21161)
updateCurrDst(21276)
updateCurrDst(21508)
updateCurrDst(21680)
updateCurrDst(21822)
updateCurrDst(21903)
updateCurrDst(22042)
updateCurrDst(22312)
updateCurrDst(22424)
Heartbeat CPU 0 instructions: 14000002 cycles: 4612911 heartbeat IPC: 3.06892 cumulative IPC: 3.03496 (Simulation time: 0 hr 1 min 24 sec) 
updateCurrDst(22595)
updateCurrDst(22824)
updateCurrDst(22837)
updateCurrDst(23075)
updateCurrDst(23095)
updateCurrDst(23149)
updateCurrDst(23189)
updateCurrDst(23254)
updateCurrDst(23331)
updateCurrDst(23383)
updateCurrDst(23546)
updateCurrDst(23567)
updateCurrDst(23716)
updateCurrDst(23882)
updateCurrDst(24128)
updateCurrDst(24199)
updateCurrDst(24240)
updateCurrDst(24353)
updateCurrDst(24405)
updateCurrDst(24636)
updateCurrDst(24815)
updateCurrDst(25064)
Heartbeat CPU 0 instructions: 15000000 cycles: 4939679 heartbeat IPC: 3.06027 cumulative IPC: 3.03663 (Simulation time: 0 hr 1 min 33 sec) 
updateCurrDst(25298)
updateCurrDst(25545)
updateCurrDst(25641)
updateCurrDst(25694)
updateCurrDst(25757)
updateCurrDst(25790)
updateCurrDst(26105)
updateCurrDst(26184)
updateCurrDst(26372)
updateCurrDst(26378)
updateCurrDst(26402)
updateCurrDst(26416)
updateCurrDst(26777)
updateCurrDst(26867)
updateCurrDst(26997)
updateCurrDst(27177)
updateCurrDst(27266)
updateCurrDst(27342)
updateCurrDst(27733)
Heartbeat CPU 0 instructions: 16000003 cycles: 5265934 heartbeat IPC: 3.0651 cumulative IPC: 3.0384 (Simulation time: 0 hr 1 min 40 sec) 
updateCurrDst(28018)
updateCurrDst(28037)
updateCurrDst(28245)
updateCurrDst(28275)
updateCurrDst(28340)
updateCurrDst(28434)
updateCurrDst(28444)
updateCurrDst(28725)
updateCurrDst(28819)
updateCurrDst(28836)
updateCurrDst(28911)
updateCurrDst(29026)
updateCurrDst(29110)
updateCurrDst(29226)
updateCurrDst(29482)
updateCurrDst(29745)
updateCurrDst(29760)
updateCurrDst(29937)
updateCurrDst(29960)
updateCurrDst(29985)
updateCurrDst(30055)
updateCurrDst(30198)
updateCurrDst(30471)
Heartbeat CPU 0 instructions: 17000001 cycles: 5594074 heartbeat IPC: 3.04747 cumulative IPC: 3.03893 (Simulation time: 0 hr 1 min 50 sec) 
updateCurrDst(30669)
updateCurrDst(30801)
updateCurrDst(30849)
updateCurrDst(30989)
updateCurrDst(31018)
updateCurrDst(31074)
updateCurrDst(31077)
updateCurrDst(31209)
updateCurrDst(31227)
updateCurrDst(31270)
updateCurrDst(31622)
updateCurrDst(31643)
updateCurrDst(31736)
updateCurrDst(31832)
updateCurrDst(31854)
updateCurrDst(31903)
updateCurrDst(31988)
updateCurrDst(31991)
updateCurrDst(32016)
updateCurrDst(32110)
updateCurrDst(32199)
updateCurrDst(32262)
updateCurrDst(32291)
updateCurrDst(32627)
updateCurrDst(32676)
updateCurrDst(32769)
updateCurrDst(32827)
updateCurrDst(32965)
updateCurrDst(33025)
updateCurrDst(33079)
updateCurrDst(33124)
Heartbeat CPU 0 instructions: 18000001 cycles: 5921744 heartbeat IPC: 3.05185 cumulative IPC: 3.03965 (Simulation time: 0 hr 1 min 57 sec) 
updateCurrDst(33253)
updateCurrDst(33442)
updateCurrDst(33461)
updateCurrDst(33506)
updateCurrDst(33527)
updateCurrDst(33569)
updateCurrDst(33591)
updateCurrDst(33690)
updateCurrDst(33705)
updateCurrDst(33714)
updateCurrDst(34034)
updateCurrDst(34039)
updateCurrDst(34136)
updateCurrDst(34322)
updateCurrDst(34379)
updateCurrDst(34441)
updateCurrDst(34568)
updateCurrDst(34689)
updateCurrDst(34710)
updateCurrDst(34769)
updateCurrDst(34871)
updateCurrDst(34926)
updateCurrDst(34987)
updateCurrDst(35058)
updateCurrDst(35075)
updateCurrDst(35292)
updateCurrDst(35394)
updateCurrDst(35580)
updateCurrDst(35604)
updateCurrDst(35684)
updateCurrDst(35719)
updateCurrDst(35856)
updateCurrDst(35940)
Heartbeat CPU 0 instructions: 19000001 cycles: 6250386 heartbeat IPC: 3.04282 cumulative IPC: 3.03981 (Simulation time: 0 hr 2 min 4 sec) 
updateCurrDst(36347)
updateCurrDst(36432)
updateCurrDst(36462)
updateCurrDst(36831)
updateCurrDst(36848)
updateCurrDst(37210)
updateCurrDst(37358)
updateCurrDst(37367)
updateCurrDst(37478)
updateCurrDst(37509)
updateCurrDst(37510)
updateCurrDst(37582)
updateCurrDst(37686)
updateCurrDst(37691)
updateCurrDst(37813)
updateCurrDst(38011)
updateCurrDst(38158)
updateCurrDst(38165)
updateCurrDst(38324)
Heartbeat CPU 0 instructions: 20000000 cycles: 6575057 heartbeat IPC: 3.08004 cumulative IPC: 3.0418 (Simulation time: 0 hr 2 min 12 sec) 
updateCurrDst(38536)
updateCurrDst(38697)
updateCurrDst(38792)
updateCurrDst(39037)
updateCurrDst(39168)
updateCurrDst(39373)
updateCurrDst(39869)
updateCurrDst(39952)
updateCurrDst(40007)
updateCurrDst(40008)
updateCurrDst(40173)
updateCurrDst(40270)
updateCurrDst(40382)
updateCurrDst(40500)
updateCurrDst(40523)
updateCurrDst(40733)
updateCurrDst(40893)
updateCurrDst(40942)
updateCurrDst(40978)
Heartbeat CPU 0 instructions: 21000000 cycles: 6900726 heartbeat IPC: 3.0706 cumulative IPC: 3.04316 (Simulation time: 0 hr 2 min 19 sec) 
updateCurrDst(40988)
updateCurrDst(41009)
updateCurrDst(41095)
updateCurrDst(41175)
updateCurrDst(41242)
updateCurrDst(41355)
updateCurrDst(41426)
updateCurrDst(41493)
updateCurrDst(41524)
updateCurrDst(41562)
updateCurrDst(41583)
updateCurrDst(41658)
updateCurrDst(42004)
updateCurrDst(42135)
updateCurrDst(42158)
updateCurrDst(42175)
updateCurrDst(42184)
updateCurrDst(42187)
updateCurrDst(42388)
updateCurrDst(42459)
updateCurrDst(42543)
updateCurrDst(42563)
updateCurrDst(42566)
updateCurrDst(42759)
updateCurrDst(42808)
updateCurrDst(42908)
updateCurrDst(42950)
updateCurrDst(42951)
updateCurrDst(43028)
updateCurrDst(43185)
updateCurrDst(43214)
updateCurrDst(43259)
updateCurrDst(43416)
updateCurrDst(43430)
updateCurrDst(43546)
Heartbeat CPU 0 instructions: 22000000 cycles: 7228708 heartbeat IPC: 3.04895 cumulative IPC: 3.04342 (Simulation time: 0 hr 2 min 26 sec) 
updateCurrDst(43896)
updateCurrDst(44379)
updateCurrDst(44628)
updateCurrDst(44749)
updateCurrDst(44764)
updateCurrDst(44888)
updateCurrDst(44895)
updateCurrDst(45048)
updateCurrDst(45347)
updateCurrDst(45350)
updateCurrDst(45401)
updateCurrDst(45591)
updateCurrDst(45671)
updateCurrDst(45872)
updateCurrDst(45923)
updateCurrDst(46030)
updateCurrDst(46328)
Heartbeat CPU 0 instructions: 23000000 cycles: 7557843 heartbeat IPC: 3.03827 cumulative IPC: 3.0432 (Simulation time: 0 hr 2 min 33 sec) 
updateCurrDst(46761)
updateCurrDst(47331)
updateCurrDst(47405)
updateCurrDst(47447)
updateCurrDst(47499)
updateCurrDst(47554)
updateCurrDst(47832)
updateCurrDst(47887)
updateCurrDst(47953)
updateCurrDst(48014)
updateCurrDst(48022)
updateCurrDst(48334)
updateCurrDst(48363)
updateCurrDst(48440)
updateCurrDst(48470)
updateCurrDst(48610)
updateCurrDst(48741)
updateCurrDst(49054)
updateCurrDst(49427)
updateCurrDst(49540)
updateCurrDst(49571)
updateCurrDst(49578)
Heartbeat CPU 0 instructions: 24000002 cycles: 7889551 heartbeat IPC: 3.01471 cumulative IPC: 3.042 (Simulation time: 0 hr 2 min 41 sec) 
updateCurrDst(49598)
updateCurrDst(49635)
updateCurrDst(49699)
updateCurrDst(49812)
updateCurrDst(49818)
updateCurrDst(49884)
updateCurrDst(50038)
updateCurrDst(50077)
updateCurrDst(50121)
updateCurrDst(50205)
updateCurrDst(50312)
updateCurrDst(50416)
updateCurrDst(50425)
updateCurrDst(51014)
updateCurrDst(51070)
updateCurrDst(51091)
updateCurrDst(51170)
updateCurrDst(51285)
updateCurrDst(51328)
updateCurrDst(51351)
updateCurrDst(51407)
updateCurrDst(51430)
updateCurrDst(51438)
updateCurrDst(51526)
updateCurrDst(51583)
updateCurrDst(51607)
updateCurrDst(51931)
updateCurrDst(52158)
updateCurrDst(52172)
updateCurrDst(52278)
updateCurrDst(52364)
Heartbeat CPU 0 instructions: 25000001 cycles: 8218768 heartbeat IPC: 3.03751 cumulative IPC: 3.04182 (Simulation time: 0 hr 2 min 48 sec) 
updateCurrDst(52433)
updateCurrDst(52612)
updateCurrDst(52715)
updateCurrDst(52757)
updateCurrDst(52789)
updateCurrDst(52811)
updateCurrDst(52834)
updateCurrDst(52945)
updateCurrDst(52997)
updateCurrDst(53020)
updateCurrDst(53148)
updateCurrDst(53328)
updateCurrDst(53347)
updateCurrDst(53500)
updateCurrDst(53563)
updateCurrDst(53571)
updateCurrDst(53592)
updateCurrDst(53706)
updateCurrDst(53732)
updateCurrDst(53923)
updateCurrDst(54017)
updateCurrDst(54076)
updateCurrDst(54160)
updateCurrDst(54275)
updateCurrDst(54280)
updateCurrDst(54314)
updateCurrDst(54363)
updateCurrDst(54486)
updateCurrDst(54533)
Heartbeat CPU 0 instructions: 26000000 cycles: 8540208 heartbeat IPC: 3.111 cumulative IPC: 3.04442 (Simulation time: 0 hr 2 min 56 sec) 
updateCurrDst(54714)
updateCurrDst(54842)
updateCurrDst(54907)
updateCurrDst(54938)
updateCurrDst(54975)
updateCurrDst(55094)
updateCurrDst(55145)
updateCurrDst(55178)
updateCurrDst(55329)
updateCurrDst(55416)
updateCurrDst(55541)
updateCurrDst(55684)
updateCurrDst(55958)
updateCurrDst(55965)
updateCurrDst(56141)
updateCurrDst(56295)
updateCurrDst(56539)
updateCurrDst(56563)
updateCurrDst(56596)
updateCurrDst(56630)
updateCurrDst(56858)
updateCurrDst(57137)
Heartbeat CPU 0 instructions: 27000002 cycles: 8866264 heartbeat IPC: 3.06696 cumulative IPC: 3.04525 (Simulation time: 0 hr 3 min 3 sec) 
updateCurrDst(57162)
updateCurrDst(57223)
updateCurrDst(57558)
updateCurrDst(57569)
updateCurrDst(57617)
updateCurrDst(57652)
updateCurrDst(57814)
updateCurrDst(57835)
updateCurrDst(57859)
updateCurrDst(57865)
updateCurrDst(58286)
updateCurrDst(58895)
updateCurrDst(59049)
updateCurrDst(59108)
updateCurrDst(59184)
updateCurrDst(59213)
updateCurrDst(59279)
updateCurrDst(59426)
updateCurrDst(59467)
updateCurrDst(59530)
updateCurrDst(59667)
updateCurrDst(59692)
updateCurrDst(59721)
Heartbeat CPU 0 instructions: 28000001 cycles: 9192837 heartbeat IPC: 3.0621 cumulative IPC: 3.04585 (Simulation time: 0 hr 3 min 11 sec) 
updateCurrDst(59837)
updateCurrDst(59941)
updateCurrDst(60089)
updateCurrDst(60258)
updateCurrDst(60390)
updateCurrDst(60403)
updateCurrDst(60563)
updateCurrDst(60640)
updateCurrDst(60641)
updateCurrDst(60675)
updateCurrDst(60781)
updateCurrDst(61167)
updateCurrDst(61259)
updateCurrDst(61298)
updateCurrDst(61440)
updateCurrDst(61578)
updateCurrDst(61622)
updateCurrDst(61690)
updateCurrDst(61705)
updateCurrDst(61926)
updateCurrDst(62062)
updateCurrDst(62155)
updateCurrDst(62176)
updateCurrDst(62341)
Heartbeat CPU 0 instructions: 29000000 cycles: 9521572 heartbeat IPC: 3.04196 cumulative IPC: 3.04572 (Simulation time: 0 hr 3 min 18 sec) 
updateCurrDst(62557)
updateCurrDst(62608)
updateCurrDst(62780)
updateCurrDst(62815)
updateCurrDst(63069)
updateCurrDst(63219)
updateCurrDst(63296)
updateCurrDst(63419)
updateCurrDst(63835)
updateCurrDst(63852)
updateCurrDst(63958)
updateCurrDst(63968)
updateCurrDst(64076)
updateCurrDst(64095)
updateCurrDst(64615)
updateCurrDst(64684)
updateCurrDst(64952)
updateCurrDst(65170)
updateCurrDst(65239)
updateCurrDst(65292)
Heartbeat CPU 0 instructions: 30000002 cycles: 9850282 heartbeat IPC: 3.0422 cumulative IPC: 3.0456 (Simulation time: 0 hr 3 min 28 sec) 
updateCurrDst(65356)
updateCurrDst(65404)
updateCurrDst(65406)
updateCurrDst(65645)
updateCurrDst(65724)
updateCurrDst(65740)
updateCurrDst(65812)
updateCurrDst(65955)
updateCurrDst(66013)
updateCurrDst(66035)
updateCurrDst(66054)
updateCurrDst(66187)
updateCurrDst(66242)
updateCurrDst(66299)
updateCurrDst(66407)
updateCurrDst(66442)
updateCurrDst(66553)
updateCurrDst(66630)
updateCurrDst(67099)
updateCurrDst(67225)
updateCurrDst(67542)
updateCurrDst(67577)
updateCurrDst(67758)
Heartbeat CPU 0 instructions: 31000000 cycles: 10175201 heartbeat IPC: 3.07768 cumulative IPC: 3.04662 (Simulation time: 0 hr 3 min 35 sec) 
updateCurrDst(67864)
updateCurrDst(67886)
updateCurrDst(68169)
updateCurrDst(68187)
updateCurrDst(68497)
updateCurrDst(68621)
updateCurrDst(68746)
updateCurrDst(68775)
updateCurrDst(68822)
updateCurrDst(68872)
updateCurrDst(68892)
updateCurrDst(69073)
updateCurrDst(69184)
updateCurrDst(69264)
updateCurrDst(69402)
updateCurrDst(69565)
updateCurrDst(69639)
updateCurrDst(69640)
updateCurrDst(69654)
updateCurrDst(69929)
updateCurrDst(70012)
updateCurrDst(70061)
updateCurrDst(70238)
Heartbeat CPU 0 instructions: 32000001 cycles: 10499779 heartbeat IPC: 3.08093 cumulative IPC: 3.04768 (Simulation time: 0 hr 3 min 44 sec) 
updateCurrDst(70360)
updateCurrDst(70608)
updateCurrDst(70653)
updateCurrDst(70677)
updateCurrDst(70735)
updateCurrDst(70737)
updateCurrDst(70799)
updateCurrDst(70885)
updateCurrDst(70903)
updateCurrDst(71068)
updateCurrDst(71227)
updateCurrDst(71483)
updateCurrDst(71496)
updateCurrDst(71695)
updateCurrDst(71749)
updateCurrDst(71884)
updateCurrDst(71895)
updateCurrDst(72202)
updateCurrDst(72222)
updateCurrDst(72268)
updateCurrDst(72455)
updateCurrDst(72514)
updateCurrDst(72634)
updateCurrDst(72801)
updateCurrDst(72908)
Heartbeat CPU 0 instructions: 33000000 cycles: 10827584 heartbeat IPC: 3.05059 cumulative IPC: 3.04777 (Simulation time: 0 hr 3 min 51 sec) 
updateCurrDst(72962)
updateCurrDst(73039)
updateCurrDst(73134)
updateCurrDst(73191)
updateCurrDst(73263)
updateCurrDst(73305)
updateCurrDst(73718)
updateCurrDst(73895)
updateCurrDst(73909)
updateCurrDst(73925)
updateCurrDst(73946)
updateCurrDst(74037)
updateCurrDst(74045)
updateCurrDst(74187)
updateCurrDst(74226)
updateCurrDst(74467)
updateCurrDst(74589)
updateCurrDst(74629)
updateCurrDst(74749)
updateCurrDst(74788)
updateCurrDst(74798)
updateCurrDst(75016)
updateCurrDst(75141)
updateCurrDst(75186)
updateCurrDst(75235)
updateCurrDst(75477)
updateCurrDst(75580)
Heartbeat CPU 0 instructions: 34000000 cycles: 11155872 heartbeat IPC: 3.04611 cumulative IPC: 3.04772 (Simulation time: 0 hr 4 min 0 sec) 
updateCurrDst(75725)
updateCurrDst(75731)
updateCurrDst(75851)
updateCurrDst(75855)
updateCurrDst(75885)
updateCurrDst(76000)
updateCurrDst(76061)
updateCurrDst(76302)
updateCurrDst(76443)
updateCurrDst(76683)
updateCurrDst(76702)
updateCurrDst(76759)
updateCurrDst(76904)
updateCurrDst(76980)
updateCurrDst(77059)
updateCurrDst(77115)
updateCurrDst(77211)
updateCurrDst(77350)
updateCurrDst(77444)
updateCurrDst(77616)
updateCurrDst(77751)
updateCurrDst(77793)
updateCurrDst(77849)
updateCurrDst(77953)
updateCurrDst(78054)
updateCurrDst(78113)
updateCurrDst(78291)
updateCurrDst(78366)
updateCurrDst(78379)
updateCurrDst(78427)
updateCurrDst(78466)
updateCurrDst(78492)
Heartbeat CPU 0 instructions: 35000000 cycles: 11484807 heartbeat IPC: 3.04011 cumulative IPC: 3.0475 (Simulation time: 0 hr 4 min 7 sec) 
updateCurrDst(78582)
updateCurrDst(78699)
updateCurrDst(78977)
updateCurrDst(79202)
updateCurrDst(79270)
updateCurrDst(79278)
updateCurrDst(79387)
updateCurrDst(79508)
updateCurrDst(79753)
updateCurrDst(79780)
updateCurrDst(79865)
updateCurrDst(79947)
updateCurrDst(80022)
updateCurrDst(80203)
updateCurrDst(80248)
updateCurrDst(80493)
updateCurrDst(80497)
updateCurrDst(80523)
updateCurrDst(80546)
updateCurrDst(80706)
updateCurrDst(80748)
updateCurrDst(80834)
Heartbeat CPU 0 instructions: 36000000 cycles: 11807950 heartbeat IPC: 3.09461 cumulative IPC: 3.04879 (Simulation time: 0 hr 4 min 14 sec) 
updateCurrDst(80885)
updateCurrDst(80993)
updateCurrDst(81126)
updateCurrDst(81306)
updateCurrDst(81369)
updateCurrDst(81466)
updateCurrDst(81488)
updateCurrDst(81530)
updateCurrDst(81837)
updateCurrDst(81907)
updateCurrDst(81928)
updateCurrDst(81952)
updateCurrDst(82071)
updateCurrDst(82426)
updateCurrDst(82712)
updateCurrDst(82841)
updateCurrDst(82944)
updateCurrDst(82975)
updateCurrDst(83342)
updateCurrDst(83408)
updateCurrDst(83482)
updateCurrDst(83497)
Heartbeat CPU 0 instructions: 37000002 cycles: 12135112 heartbeat IPC: 3.0566 cumulative IPC: 3.049 (Simulation time: 0 hr 4 min 21 sec) 
updateCurrDst(83736)
updateCurrDst(83789)
updateCurrDst(83837)
updateCurrDst(83954)
updateCurrDst(83983)
updateCurrDst(84236)
updateCurrDst(84261)
updateCurrDst(84402)
updateCurrDst(84468)
updateCurrDst(84624)
updateCurrDst(84660)
updateCurrDst(84683)
updateCurrDst(84727)
updateCurrDst(84728)
updateCurrDst(84795)
updateCurrDst(84935)
updateCurrDst(84987)
updateCurrDst(85224)
updateCurrDst(85565)
updateCurrDst(85575)
updateCurrDst(85626)
updateCurrDst(85637)
updateCurrDst(85693)
updateCurrDst(85844)
updateCurrDst(85930)
updateCurrDst(86047)
updateCurrDst(86126)
updateCurrDst(86154)
updateCurrDst(86169)
Heartbeat CPU 0 instructions: 38000000 cycles: 12463160 heartbeat IPC: 3.04833 cumulative IPC: 3.04899 (Simulation time: 0 hr 4 min 30 sec) 
updateCurrDst(86266)
updateCurrDst(86337)
updateCurrDst(86370)
updateCurrDst(86443)
updateCurrDst(86575)
updateCurrDst(86694)
updateCurrDst(86731)
updateCurrDst(86773)
updateCurrDst(86792)
updateCurrDst(87080)
updateCurrDst(87182)
updateCurrDst(87575)
updateCurrDst(87910)
updateCurrDst(88017)
updateCurrDst(88086)
updateCurrDst(88102)
updateCurrDst(88129)
updateCurrDst(88310)
updateCurrDst(88313)
updateCurrDst(88409)
updateCurrDst(88482)
updateCurrDst(88594)
Heartbeat CPU 0 instructions: 39000000 cycles: 12787998 heartbeat IPC: 3.07846 cumulative IPC: 3.04973 (Simulation time: 0 hr 4 min 37 sec) 
updateCurrDst(88794)
updateCurrDst(88847)
updateCurrDst(88876)
updateCurrDst(88955)
updateCurrDst(88972)
updateCurrDst(89020)
updateCurrDst(89058)
updateCurrDst(89130)
updateCurrDst(89135)
updateCurrDst(89152)
updateCurrDst(89164)
updateCurrDst(89226)
updateCurrDst(89288)
updateCurrDst(89339)
updateCurrDst(89347)
updateCurrDst(89451)
updateCurrDst(89470)
updateCurrDst(89508)
updateCurrDst(89644)
updateCurrDst(89745)
updateCurrDst(89766)
updateCurrDst(89862)
updateCurrDst(89903)
updateCurrDst(89950)
updateCurrDst(89976)
updateCurrDst(90050)
updateCurrDst(90140)
updateCurrDst(90221)
updateCurrDst(90272)
updateCurrDst(90537)
updateCurrDst(90597)
updateCurrDst(90829)
updateCurrDst(90919)
updateCurrDst(91416)
updateCurrDst(91465)
updateCurrDst(91470)
updateCurrDst(91494)
updateCurrDst(91571)
updateCurrDst(91645)
updateCurrDst(91673)
Heartbeat CPU 0 instructions: 40000003 cycles: 13119747 heartbeat IPC: 3.01434 cumulative IPC: 3.04884 (Simulation time: 0 hr 4 min 45 sec) 
updateCurrDst(91798)
updateCurrDst(91864)
updateCurrDst(92077)
updateCurrDst(92135)
updateCurrDst(92164)
updateCurrDst(92246)
updateCurrDst(92267)
updateCurrDst(92500)
updateCurrDst(92640)
updateCurrDst(92779)
updateCurrDst(93087)
updateCurrDst(93100)
updateCurrDst(93252)
updateCurrDst(93651)
updateCurrDst(93696)
updateCurrDst(93744)
updateCurrDst(93754)
updateCurrDst(93797)
updateCurrDst(94181)
updateCurrDst(94298)
updateCurrDst(94496)
updateCurrDst(94526)
Heartbeat CPU 0 instructions: 41000003 cycles: 13449922 heartbeat IPC: 3.0287 cumulative IPC: 3.04835 (Simulation time: 0 hr 4 min 52 sec) 
updateCurrDst(94758)
updateCurrDst(94814)
updateCurrDst(94977)
updateCurrDst(95004)
updateCurrDst(95015)
updateCurrDst(95044)
updateCurrDst(95074)
updateCurrDst(95171)
updateCurrDst(95258)
updateCurrDst(95337)
updateCurrDst(95393)
updateCurrDst(95503)
updateCurrDst(95530)
updateCurrDst(95562)
updateCurrDst(95613)
updateCurrDst(95689)
updateCurrDst(95957)
updateCurrDst(96018)
updateCurrDst(96255)
updateCurrDst(96363)
updateCurrDst(96520)
updateCurrDst(96606)
updateCurrDst(96607)
updateCurrDst(96625)
updateCurrDst(96811)
updateCurrDst(97135)
updateCurrDst(97157)
updateCurrDst(97158)
Heartbeat CPU 0 instructions: 42000000 cycles: 13775669 heartbeat IPC: 3.06986 cumulative IPC: 3.04885 (Simulation time: 0 hr 4 min 59 sec) 
updateCurrDst(97214)
updateCurrDst(97236)
updateCurrDst(97312)
updateCurrDst(97348)
updateCurrDst(97380)
updateCurrDst(97549)
updateCurrDst(97570)
updateCurrDst(97607)
updateCurrDst(97627)
updateCurrDst(97650)
updateCurrDst(97786)
updateCurrDst(97880)
updateCurrDst(98020)
updateCurrDst(98199)
updateCurrDst(98241)
updateCurrDst(98314)
updateCurrDst(98447)
updateCurrDst(98510)
updateCurrDst(98593)
updateCurrDst(98709)
updateCurrDst(98725)
updateCurrDst(98780)
updateCurrDst(98799)
updateCurrDst(98825)
updateCurrDst(98989)
updateCurrDst(99012)
updateCurrDst(99225)
updateCurrDst(99322)
updateCurrDst(99473)
updateCurrDst(99532)
updateCurrDst(99545)
updateCurrDst(99617)
updateCurrDst(99643)
updateCurrDst(99653)
updateCurrDst(99693)
updateCurrDst(99773)
Heartbeat CPU 0 instructions: 43000000 cycles: 14102558 heartbeat IPC: 3.05914 cumulative IPC: 3.04909 (Simulation time: 0 hr 5 min 5 sec) 
updateCurrDst(99843)
updateCurrDst(99882)
updateCurrDst(99888)
updateCurrDst(100075)
updateCurrDst(100108)
updateCurrDst(100134)
updateCurrDst(100635)
updateCurrDst(100750)
updateCurrDst(100939)
updateCurrDst(100953)
updateCurrDst(101335)
updateCurrDst(101417)
updateCurrDst(101479)
updateCurrDst(101501)
updateCurrDst(101555)
updateCurrDst(101602)
updateCurrDst(101614)
updateCurrDst(101915)
updateCurrDst(101959)
updateCurrDst(101965)
updateCurrDst(102090)
updateCurrDst(102191)
updateCurrDst(102217)
updateCurrDst(102331)
updateCurrDst(102476)
updateCurrDst(102491)
Heartbeat CPU 0 instructions: 44000000 cycles: 14429673 heartbeat IPC: 3.05703 cumulative IPC: 3.04927 (Simulation time: 0 hr 5 min 14 sec) 
updateCurrDst(102515)
updateCurrDst(102595)
updateCurrDst(102802)
updateCurrDst(102809)
updateCurrDst(102830)
updateCurrDst(102913)
updateCurrDst(103164)
updateCurrDst(103184)
updateCurrDst(103256)
updateCurrDst(103484)
updateCurrDst(103887)
updateCurrDst(104101)
updateCurrDst(104146)
updateCurrDst(104250)
updateCurrDst(104355)
updateCurrDst(104565)
updateCurrDst(104578)
updateCurrDst(104641)
updateCurrDst(104728)
updateCurrDst(104865)
Heartbeat CPU 0 instructions: 45000001 cycles: 14753080 heartbeat IPC: 3.09208 cumulative IPC: 3.05021 (Simulation time: 0 hr 5 min 23 sec) 
updateCurrDst(105261)
updateCurrDst(105472)
updateCurrDst(105590)
updateCurrDst(105626)
updateCurrDst(105811)
updateCurrDst(105829)
updateCurrDst(106027)
updateCurrDst(106110)
updateCurrDst(106216)
updateCurrDst(106336)
updateCurrDst(106481)
updateCurrDst(106523)
updateCurrDst(106603)
updateCurrDst(106692)
updateCurrDst(106849)
updateCurrDst(107063)
updateCurrDst(107130)
updateCurrDst(107186)
updateCurrDst(107246)
updateCurrDst(107564)
updateCurrDst(107617)
updateCurrDst(107641)
Heartbeat CPU 0 instructions: 46000000 cycles: 15081715 heartbeat IPC: 3.04289 cumulative IPC: 3.05005 (Simulation time: 0 hr 5 min 31 sec) 
updateCurrDst(107771)
updateCurrDst(107839)
updateCurrDst(107849)
updateCurrDst(107936)
updateCurrDst(108003)
updateCurrDst(108133)
updateCurrDst(108362)
updateCurrDst(108560)
updateCurrDst(108564)
updateCurrDst(108754)
updateCurrDst(108775)
updateCurrDst(108931)
updateCurrDst(108980)
updateCurrDst(108996)
updateCurrDst(109027)
updateCurrDst(109040)
updateCurrDst(109045)
updateCurrDst(109089)
updateCurrDst(109132)
updateCurrDst(109329)
updateCurrDst(109338)
updateCurrDst(109408)
updateCurrDst(109420)
updateCurrDst(109546)
updateCurrDst(109551)
updateCurrDst(109741)
updateCurrDst(109769)
updateCurrDst(109780)
updateCurrDst(109890)
updateCurrDst(109918)
updateCurrDst(109927)
updateCurrDst(109982)
updateCurrDst(110020)
Heartbeat CPU 0 instructions: 47000003 cycles: 15410831 heartbeat IPC: 3.03845 cumulative IPC: 3.0498 (Simulation time: 0 hr 5 min 38 sec) 
updateCurrDst(110547)
updateCurrDst(110826)
updateCurrDst(110916)
updateCurrDst(111159)
updateCurrDst(111222)
updateCurrDst(111346)
updateCurrDst(111420)
updateCurrDst(111562)
updateCurrDst(111646)
updateCurrDst(111663)
updateCurrDst(111899)
updateCurrDst(112107)
updateCurrDst(112167)
updateCurrDst(112216)
updateCurrDst(112275)
updateCurrDst(112543)
updateCurrDst(112579)
updateCurrDst(112714)
updateCurrDst(112761)
updateCurrDst(112780)
updateCurrDst(112968)
updateCurrDst(113230)
updateCurrDst(113269)
updateCurrDst(113331)
Heartbeat CPU 0 instructions: 48000002 cycles: 15740558 heartbeat IPC: 3.03281 cumulative IPC: 3.04945 (Simulation time: 0 hr 5 min 45 sec) 
updateCurrDst(113564)
updateCurrDst(113674)
updateCurrDst(113885)
updateCurrDst(113907)
updateCurrDst(113968)
updateCurrDst(113982)
updateCurrDst(114000)
updateCurrDst(114070)
updateCurrDst(114169)
updateCurrDst(114304)
updateCurrDst(114311)
updateCurrDst(114416)
updateCurrDst(114608)
updateCurrDst(114729)
updateCurrDst(114809)
updateCurrDst(114850)
updateCurrDst(114985)
updateCurrDst(115042)
updateCurrDst(115226)
updateCurrDst(115458)
updateCurrDst(115536)
updateCurrDst(115630)
updateCurrDst(115742)
updateCurrDst(115762)
updateCurrDst(115801)
updateCurrDst(115900)
Heartbeat CPU 0 instructions: 49000001 cycles: 16066673 heartbeat IPC: 3.0664 cumulative IPC: 3.04979 (Simulation time: 0 hr 5 min 52 sec) 
updateCurrDst(116010)
updateCurrDst(116192)
updateCurrDst(116237)
updateCurrDst(116538)
updateCurrDst(116556)
updateCurrDst(117069)
updateCurrDst(117094)
updateCurrDst(117114)
updateCurrDst(117176)
updateCurrDst(117234)
updateCurrDst(117324)
updateCurrDst(117499)
updateCurrDst(117534)
updateCurrDst(117595)
updateCurrDst(117629)
updateCurrDst(117636)
updateCurrDst(117640)
updateCurrDst(117766)
updateCurrDst(117839)
updateCurrDst(117926)
updateCurrDst(117966)
updateCurrDst(118148)
updateCurrDst(118213)
updateCurrDst(118353)
updateCurrDst(118428)
updateCurrDst(118440)
updateCurrDst(118487)
updateCurrDst(118615)
Heartbeat CPU 0 instructions: 50000002 cycles: 16394327 heartbeat IPC: 3.052 cumulative IPC: 3.04984 (Simulation time: 0 hr 5 min 59 sec) 

Warmup complete CPU 0 instructions: 50000002 cycles: 16394327 (Simulation time: 0 hr 5 min 59 sec) 

updateCurrDst(119186)
updateCurrDst(119389)
updateCurrDst(119407)
updateCurrDst(119738)
updateCurrDst(119806)
updateCurrDst(119844)
updateCurrDst(120195)
updateCurrDst(120334)
updateCurrDst(120357)
updateCurrDst(120429)
updateCurrDst(120462)
updateCurrDst(120699)
updateCurrDst(120995)
updateCurrDst(121065)
updateCurrDst(121147)
Heartbeat CPU 0 instructions: 51000000 cycles: 19456525 heartbeat IPC: 0.326562 cumulative IPC: 0.326562 (Simulation time: 0 hr 6 min 7 sec) 
updateCurrDst(121208)
updateCurrDst(121358)
updateCurrDst(121705)
updateCurrDst(121837)
updateCurrDst(121840)
updateCurrDst(121952)
updateCurrDst(122066)
updateCurrDst(122098)
updateCurrDst(122382)
updateCurrDst(122753)
updateCurrDst(122759)
updateCurrDst(122774)
updateCurrDst(122824)
updateCurrDst(122903)
updateCurrDst(122958)
updateCurrDst(123121)
updateCurrDst(123435)
updateCurrDst(123472)
updateCurrDst(123586)
Heartbeat CPU 0 instructions: 52000002 cycles: 22512638 heartbeat IPC: 0.327214 cumulative IPC: 0.326888 (Simulation time: 0 hr 6 min 15 sec) 
updateCurrDst(123917)
updateCurrDst(124010)
updateCurrDst(124082)
updateCurrDst(124126)
updateCurrDst(124205)
updateCurrDst(124237)
updateCurrDst(124439)
updateCurrDst(124746)
updateCurrDst(124809)
updateCurrDst(124861)
updateCurrDst(124914)
updateCurrDst(125016)
updateCurrDst(125029)
updateCurrDst(125092)
updateCurrDst(125375)
updateCurrDst(125615)
updateCurrDst(125619)
updateCurrDst(125664)
updateCurrDst(125688)
updateCurrDst(125744)
updateCurrDst(125747)
updateCurrDst(125750)
updateCurrDst(125944)
updateCurrDst(126135)
Heartbeat CPU 0 instructions: 53000000 cycles: 25548477 heartbeat IPC: 0.329398 cumulative IPC: 0.32772 (Simulation time: 0 hr 6 min 22 sec) 
updateCurrDst(126411)
updateCurrDst(126421)
updateCurrDst(126642)
updateCurrDst(126661)
updateCurrDst(126752)
updateCurrDst(126811)
updateCurrDst(126817)
updateCurrDst(126839)
updateCurrDst(126843)
updateCurrDst(127076)
updateCurrDst(127234)
updateCurrDst(127248)
updateCurrDst(127434)
updateCurrDst(127517)
updateCurrDst(127601)
updateCurrDst(127615)
updateCurrDst(127799)
updateCurrDst(127958)
updateCurrDst(128424)
updateCurrDst(128444)
updateCurrDst(128479)
updateCurrDst(128620)
updateCurrDst(128642)
updateCurrDst(128715)
updateCurrDst(128863)
updateCurrDst(128898)
Heartbeat CPU 0 instructions: 54000000 cycles: 28588260 heartbeat IPC: 0.328971 cumulative IPC: 0.328032 (Simulation time: 0 hr 6 min 29 sec) 
updateCurrDst(128940)
updateCurrDst(128998)
updateCurrDst(129005)
updateCurrDst(129063)
updateCurrDst(129439)
updateCurrDst(129453)
updateCurrDst(129493)
updateCurrDst(129603)
updateCurrDst(129721)
updateCurrDst(129815)
updateCurrDst(129855)
updateCurrDst(129891)
updateCurrDst(129940)
updateCurrDst(129951)
updateCurrDst(129973)
updateCurrDst(130142)
updateCurrDst(130185)
updateCurrDst(130206)
updateCurrDst(130213)
updateCurrDst(130260)
updateCurrDst(130618)
updateCurrDst(130668)
updateCurrDst(130858)
updateCurrDst(130862)
updateCurrDst(130944)
updateCurrDst(130949)
updateCurrDst(130961)
updateCurrDst(131009)
updateCurrDst(131240)
updateCurrDst(131436)
Heartbeat CPU 0 instructions: 55000000 cycles: 31645823 heartbeat IPC: 0.327058 cumulative IPC: 0.327837 (Simulation time: 0 hr 6 min 36 sec) 
updateCurrDst(131557)
updateCurrDst(131597)
updateCurrDst(131685)
updateCurrDst(131740)
updateCurrDst(131755)
updateCurrDst(131939)
updateCurrDst(132025)
updateCurrDst(132114)
updateCurrDst(132142)
updateCurrDst(132277)
updateCurrDst(132584)
updateCurrDst(132763)
updateCurrDst(132846)
updateCurrDst(133036)
updateCurrDst(133115)
updateCurrDst(133171)
updateCurrDst(133375)
updateCurrDst(133486)
updateCurrDst(133501)
updateCurrDst(133578)
updateCurrDst(133672)
updateCurrDst(133815)
Heartbeat CPU 0 instructions: 56000001 cycles: 34678749 heartbeat IPC: 0.329715 cumulative IPC: 0.328148 (Simulation time: 0 hr 6 min 44 sec) 
updateCurrDst(134347)
updateCurrDst(134361)
updateCurrDst(134622)
updateCurrDst(134875)
updateCurrDst(135053)
updateCurrDst(135158)
updateCurrDst(135206)
updateCurrDst(135335)
updateCurrDst(135413)
updateCurrDst(135455)
updateCurrDst(135503)
updateCurrDst(135572)
updateCurrDst(135599)
updateCurrDst(135668)
updateCurrDst(135779)
updateCurrDst(135801)
updateCurrDst(135859)
updateCurrDst(135999)
updateCurrDst(136166)
updateCurrDst(136182)
updateCurrDst(136226)
updateCurrDst(136441)
updateCurrDst(136495)
Heartbeat CPU 0 instructions: 57000002 cycles: 37749715 heartbeat IPC: 0.325631 cumulative IPC: 0.327786 (Simulation time: 0 hr 6 min 51 sec) 
updateCurrDst(136726)
updateCurrDst(136867)
updateCurrDst(136961)
updateCurrDst(137071)
updateCurrDst(137101)
updateCurrDst(137260)
updateCurrDst(137388)
updateCurrDst(137435)
updateCurrDst(137493)
updateCurrDst(137830)
updateCurrDst(138194)
updateCurrDst(138230)
updateCurrDst(138595)
updateCurrDst(138618)
updateCurrDst(138737)
updateCurrDst(138762)
updateCurrDst(138795)
updateCurrDst(138820)
updateCurrDst(138829)
updateCurrDst(138863)
updateCurrDst(138900)
updateCurrDst(138910)
updateCurrDst(138981)
updateCurrDst(139136)
updateCurrDst(139255)
Heartbeat CPU 0 instructions: 58000001 cycles: 40780775 heartbeat IPC: 0.329917 cumulative IPC: 0.328051 (Simulation time: 0 hr 6 min 58 sec) 
updateCurrDst(139506)
updateCurrDst(139543)
updateCurrDst(139582)
updateCurrDst(139714)
updateCurrDst(139835)
updateCurrDst(139920)
updateCurrDst(140077)
updateCurrDst(140156)
updateCurrDst(140353)
updateCurrDst(140361)
updateCurrDst(140464)
updateCurrDst(140466)
updateCurrDst(140509)
updateCurrDst(140572)
updateCurrDst(140673)
updateCurrDst(140675)
updateCurrDst(140718)
updateCurrDst(140869)
updateCurrDst(140923)
updateCurrDst(140965)
updateCurrDst(141002)
updateCurrDst(141187)
updateCurrDst(141332)
updateCurrDst(141374)
updateCurrDst(141483)
updateCurrDst(141699)
updateCurrDst(141827)
updateCurrDst(141828)
Heartbeat CPU 0 instructions: 59000001 cycles: 43802122 heartbeat IPC: 0.330978 cumulative IPC: 0.328374 (Simulation time: 0 hr 7 min 5 sec) 
updateCurrDst(142562)
updateCurrDst(142598)
updateCurrDst(142608)
updateCurrDst(142746)
updateCurrDst(142786)
updateCurrDst(143192)
updateCurrDst(143201)
updateCurrDst(143266)
updateCurrDst(143273)
updateCurrDst(143644)
updateCurrDst(143647)
updateCurrDst(143719)
updateCurrDst(143907)
updateCurrDst(143999)
updateCurrDst(144000)
updateCurrDst(144279)
updateCurrDst(144321)
updateCurrDst(144449)
updateCurrDst(144599)
updateCurrDst(144618)
updateCurrDst(144803)
Heartbeat CPU 0 instructions: 60000001 cycles: 46864339 heartbeat IPC: 0.326561 cumulative IPC: 0.328191 (Simulation time: 0 hr 7 min 13 sec) 
updateCurrDst(145091)
updateCurrDst(145312)
updateCurrDst(145467)
updateCurrDst(145531)
updateCurrDst(145581)
updateCurrDst(145583)
updateCurrDst(145645)
updateCurrDst(145661)
updateCurrDst(145958)
updateCurrDst(146007)
updateCurrDst(146080)
updateCurrDst(146119)
updateCurrDst(146171)
updateCurrDst(146233)
updateCurrDst(146333)
updateCurrDst(146430)
updateCurrDst(146473)
updateCurrDst(146499)
updateCurrDst(146696)
updateCurrDst(147024)
updateCurrDst(147027)
updateCurrDst(147076)
updateCurrDst(147298)
updateCurrDst(147318)
updateCurrDst(147340)
updateCurrDst(147345)
updateCurrDst(147351)
updateCurrDst(147422)
updateCurrDst(147476)
updateCurrDst(147528)
updateCurrDst(147592)
updateCurrDst(147706)
updateCurrDst(147712)
Heartbeat CPU 0 instructions: 61000000 cycles: 49880459 heartbeat IPC: 0.331551 cumulative IPC: 0.328494 (Simulation time: 0 hr 7 min 21 sec) 
updateCurrDst(147761)
updateCurrDst(147791)
updateCurrDst(147813)
updateCurrDst(148152)
updateCurrDst(148278)
updateCurrDst(148290)
updateCurrDst(148436)
updateCurrDst(148828)
updateCurrDst(148831)
updateCurrDst(148847)
updateCurrDst(148993)
updateCurrDst(149051)
updateCurrDst(149184)
updateCurrDst(149309)
updateCurrDst(149486)
updateCurrDst(149495)
updateCurrDst(149636)
updateCurrDst(149680)
updateCurrDst(149884)
updateCurrDst(149990)
Heartbeat CPU 0 instructions: 62000002 cycles: 52937777 heartbeat IPC: 0.327085 cumulative IPC: 0.328376 (Simulation time: 0 hr 7 min 29 sec) 
updateCurrDst(150265)
updateCurrDst(150282)
updateCurrDst(150473)
updateCurrDst(150481)
updateCurrDst(150523)
updateCurrDst(150526)
updateCurrDst(150538)
updateCurrDst(150557)
updateCurrDst(150748)
updateCurrDst(150802)
updateCurrDst(150896)
updateCurrDst(151030)
updateCurrDst(151032)
updateCurrDst(151160)
updateCurrDst(151192)
updateCurrDst(151227)
updateCurrDst(151254)
updateCurrDst(151357)
updateCurrDst(151447)
updateCurrDst(151526)
updateCurrDst(151546)
updateCurrDst(152032)
updateCurrDst(152202)
updateCurrDst(152357)
updateCurrDst(152373)
updateCurrDst(152644)
updateCurrDst(152662)
updateCurrDst(152669)
updateCurrDst(152700)
updateCurrDst(152804)
updateCurrDst(152830)
Heartbeat CPU 0 instructions: 63000002 cycles: 55962129 heartbeat IPC: 0.330649 cumulative IPC: 0.32855 (Simulation time: 0 hr 7 min 36 sec) 
updateCurrDst(153049)
updateCurrDst(153126)
updateCurrDst(153148)
updateCurrDst(153286)
updateCurrDst(153391)
updateCurrDst(153546)
updateCurrDst(153884)
updateCurrDst(153989)
updateCurrDst(154100)
updateCurrDst(154366)
updateCurrDst(154391)
updateCurrDst(154437)
updateCurrDst(154513)
updateCurrDst(154637)
updateCurrDst(154690)
updateCurrDst(154733)
updateCurrDst(154811)
updateCurrDst(154937)
updateCurrDst(154967)
updateCurrDst(154989)
updateCurrDst(155127)
updateCurrDst(155328)
updateCurrDst(155364)
updateCurrDst(155461)
updateCurrDst(155478)
updateCurrDst(155525)
updateCurrDst(155530)
updateCurrDst(155561)
Heartbeat CPU 0 instructions: 64000000 cycles: 59004584 heartbeat IPC: 0.328681 cumulative IPC: 0.328559 (Simulation time: 0 hr 7 min 44 sec) 
updateCurrDst(155970)
updateCurrDst(156213)
updateCurrDst(156230)
updateCurrDst(156326)
updateCurrDst(156351)
updateCurrDst(156369)
updateCurrDst(156391)
updateCurrDst(156533)
updateCurrDst(156562)
updateCurrDst(156606)
updateCurrDst(156823)
updateCurrDst(156825)
updateCurrDst(156919)
updateCurrDst(156965)
updateCurrDst(157039)
updateCurrDst(157231)
updateCurrDst(157347)
updateCurrDst(157492)
updateCurrDst(157537)
updateCurrDst(157551)
updateCurrDst(157717)
updateCurrDst(157850)
updateCurrDst(157917)
Heartbeat CPU 0 instructions: 65000001 cycles: 62077251 heartbeat IPC: 0.325451 cumulative IPC: 0.32835 (Simulation time: 0 hr 7 min 52 sec) 
updateCurrDst(158039)
updateCurrDst(158094)
updateCurrDst(158142)
updateCurrDst(158233)
updateCurrDst(158306)
updateCurrDst(158438)
updateCurrDst(158592)
updateCurrDst(158706)
updateCurrDst(158924)
updateCurrDst(158943)
updateCurrDst(159034)
updateCurrDst(159181)
updateCurrDst(159233)
updateCurrDst(159666)
updateCurrDst(159907)
updateCurrDst(159916)
updateCurrDst(159953)
updateCurrDst(159977)
updateCurrDst(160039)
updateCurrDst(160099)
updateCurrDst(160167)
updateCurrDst(160284)
updateCurrDst(160425)
updateCurrDst(160521)
updateCurrDst(160596)
updateCurrDst(160703)
updateCurrDst(160833)
Heartbeat CPU 0 instructions: 66000000 cycles: 65102493 heartbeat IPC: 0.330552 cumulative IPC: 0.328487 (Simulation time: 0 hr 7 min 59 sec) 
updateCurrDst(160896)
updateCurrDst(160898)
updateCurrDst(161007)
updateCurrDst(161204)
updateCurrDst(161224)
updateCurrDst(161280)
updateCurrDst(161440)
updateCurrDst(161670)
updateCurrDst(161701)
updateCurrDst(161706)
updateCurrDst(161819)
updateCurrDst(161824)
updateCurrDst(161853)
updateCurrDst(161872)
updateCurrDst(161961)
updateCurrDst(162081)
updateCurrDst(162171)
updateCurrDst(162266)
updateCurrDst(162271)
updateCurrDst(162320)
updateCurrDst(162539)
updateCurrDst(162666)
updateCurrDst(162674)
updateCurrDst(162712)
updateCurrDst(162772)
updateCurrDst(162990)
Heartbeat CPU 0 instructions: 67000000 cycles: 68164616 heartbeat IPC: 0.326571 cumulative IPC: 0.328374 (Simulation time: 0 hr 8 min 6 sec) 
updateCurrDst(163525)
updateCurrDst(163572)
updateCurrDst(163813)
updateCurrDst(163828)
updateCurrDst(163921)
updateCurrDst(164031)
updateCurrDst(164035)
updateCurrDst(164124)
updateCurrDst(164304)
updateCurrDst(164560)
updateCurrDst(164584)
updateCurrDst(164606)
updateCurrDst(164633)
updateCurrDst(164688)
updateCurrDst(164798)
updateCurrDst(165389)
updateCurrDst(165391)
updateCurrDst(165519)
updateCurrDst(165703)
updateCurrDst(165788)
updateCurrDst(165804)
updateCurrDst(165925)
Heartbeat CPU 0 instructions: 68000001 cycles: 71203822 heartbeat IPC: 0.329034 cumulative IPC: 0.32841 (Simulation time: 0 hr 8 min 14 sec) 
updateCurrDst(166144)
updateCurrDst(166170)
updateCurrDst(166355)
updateCurrDst(166467)
updateCurrDst(166571)
updateCurrDst(166635)
updateCurrDst(166669)
updateCurrDst(166748)
updateCurrDst(166772)
updateCurrDst(166839)
updateCurrDst(166958)
updateCurrDst(166989)
updateCurrDst(167084)
updateCurrDst(167132)
updateCurrDst(167163)
updateCurrDst(167186)
updateCurrDst(167187)
updateCurrDst(167211)
updateCurrDst(167268)
updateCurrDst(167316)
updateCurrDst(167528)
updateCurrDst(167669)
updateCurrDst(168228)
updateCurrDst(168251)
Heartbeat CPU 0 instructions: 69000002 cycles: 74260596 heartbeat IPC: 0.327143 cumulative IPC: 0.328343 (Simulation time: 0 hr 8 min 21 sec) 
updateCurrDst(168605)
updateCurrDst(168673)
updateCurrDst(168677)
updateCurrDst(169214)
updateCurrDst(169275)
updateCurrDst(169371)
updateCurrDst(169447)
updateCurrDst(169481)
updateCurrDst(169552)
updateCurrDst(169973)
updateCurrDst(170007)
updateCurrDst(170053)
updateCurrDst(170110)
updateCurrDst(170117)
updateCurrDst(170138)
updateCurrDst(170592)
updateCurrDst(170974)
Heartbeat CPU 0 instructions: 70000000 cycles: 77308107 heartbeat IPC: 0.328136 cumulative IPC: 0.328333 (Simulation time: 0 hr 8 min 28 sec) 
updateCurrDst(171190)
updateCurrDst(171271)
updateCurrDst(171337)
updateCurrDst(171361)
updateCurrDst(171507)
updateCurrDst(171658)
updateCurrDst(171908)
updateCurrDst(172028)
updateCurrDst(172048)
updateCurrDst(172070)
updateCurrDst(172092)
updateCurrDst(172137)
updateCurrDst(172182)
updateCurrDst(172186)
updateCurrDst(172308)
updateCurrDst(172422)
updateCurrDst(172699)
updateCurrDst(172929)
updateCurrDst(173111)
updateCurrDst(173167)
updateCurrDst(173261)
updateCurrDst(173305)
Heartbeat CPU 0 instructions: 71000000 cycles: 80359555 heartbeat IPC: 0.327713 cumulative IPC: 0.328303 (Simulation time: 0 hr 8 min 37 sec) 
updateCurrDst(173517)
updateCurrDst(173568)
updateCurrDst(173811)
updateCurrDst(173857)
updateCurrDst(173927)
updateCurrDst(173954)
updateCurrDst(174069)
updateCurrDst(174285)
updateCurrDst(174318)
updateCurrDst(174331)
updateCurrDst(174381)
updateCurrDst(174509)
updateCurrDst(174702)
updateCurrDst(174926)
updateCurrDst(175045)
updateCurrDst(175313)
updateCurrDst(175360)
updateCurrDst(175476)
updateCurrDst(175615)
updateCurrDst(175649)
updateCurrDst(175783)
updateCurrDst(175820)
updateCurrDst(175851)
updateCurrDst(175889)
updateCurrDst(175920)
Heartbeat CPU 0 instructions: 72000000 cycles: 83396205 heartbeat IPC: 0.32931 cumulative IPC: 0.328349 (Simulation time: 0 hr 8 min 46 sec) 
updateCurrDst(176066)
updateCurrDst(176177)
updateCurrDst(176178)
updateCurrDst(176453)
updateCurrDst(176472)
updateCurrDst(176502)
updateCurrDst(176666)
updateCurrDst(176770)
updateCurrDst(176900)
updateCurrDst(176911)
updateCurrDst(176919)
updateCurrDst(177020)
updateCurrDst(177121)
updateCurrDst(177140)
updateCurrDst(177323)
updateCurrDst(177333)
updateCurrDst(177349)
updateCurrDst(177435)
updateCurrDst(177476)
updateCurrDst(177544)
updateCurrDst(177584)
updateCurrDst(177688)
updateCurrDst(177792)
updateCurrDst(177813)
updateCurrDst(177820)
updateCurrDst(178059)
updateCurrDst(178283)
updateCurrDst(178348)
updateCurrDst(178453)
updateCurrDst(178455)
updateCurrDst(178571)
Heartbeat CPU 0 instructions: 73000000 cycles: 86438419 heartbeat IPC: 0.328708 cumulative IPC: 0.328365 (Simulation time: 0 hr 8 min 53 sec) 
updateCurrDst(178835)
updateCurrDst(178840)
updateCurrDst(178850)
updateCurrDst(179004)
updateCurrDst(179134)
updateCurrDst(179136)
updateCurrDst(179280)
updateCurrDst(179510)
updateCurrDst(179527)
updateCurrDst(179541)
updateCurrDst(179561)
updateCurrDst(179602)
updateCurrDst(179633)
updateCurrDst(179790)
updateCurrDst(179890)
updateCurrDst(179909)
updateCurrDst(179920)
updateCurrDst(180026)
updateCurrDst(180145)
updateCurrDst(180222)
updateCurrDst(180225)
updateCurrDst(180274)
updateCurrDst(180291)
updateCurrDst(180320)
updateCurrDst(180385)
updateCurrDst(180424)
updateCurrDst(180529)
updateCurrDst(180542)
updateCurrDst(180552)
updateCurrDst(180608)
updateCurrDst(180727)
updateCurrDst(180764)
updateCurrDst(180853)
updateCurrDst(181118)
updateCurrDst(181198)
Heartbeat CPU 0 instructions: 74000000 cycles: 89473219 heartbeat IPC: 0.329511 cumulative IPC: 0.328412 (Simulation time: 0 hr 9 min 2 sec) 
updateCurrDst(181382)
updateCurrDst(181503)
updateCurrDst(181543)
updateCurrDst(181566)
updateCurrDst(182014)
updateCurrDst(182204)
updateCurrDst(182367)
updateCurrDst(182414)
updateCurrDst(182464)
updateCurrDst(182514)
updateCurrDst(182714)
updateCurrDst(182722)
updateCurrDst(182793)
updateCurrDst(182842)
updateCurrDst(182861)
updateCurrDst(182981)
updateCurrDst(183090)
updateCurrDst(183148)
updateCurrDst(183158)
updateCurrDst(183257)
updateCurrDst(183272)
updateCurrDst(183295)
updateCurrDst(183373)
updateCurrDst(183678)
updateCurrDst(183874)
Heartbeat CPU 0 instructions: 75000003 cycles: 92526168 heartbeat IPC: 0.327553 cumulative IPC: 0.328378 (Simulation time: 0 hr 9 min 9 sec) 
updateCurrDst(183922)
updateCurrDst(184019)
updateCurrDst(184277)
updateCurrDst(184302)
updateCurrDst(184322)
updateCurrDst(184395)
updateCurrDst(184900)
updateCurrDst(185097)
updateCurrDst(185152)
updateCurrDst(185177)
updateCurrDst(185306)
updateCurrDst(185456)
updateCurrDst(185660)
updateCurrDst(185941)
updateCurrDst(186253)
updateCurrDst(186345)
updateCurrDst(186473)
Heartbeat CPU 0 instructions: 76000002 cycles: 95560578 heartbeat IPC: 0.329553 cumulative IPC: 0.328423 (Simulation time: 0 hr 9 min 17 sec) 
updateCurrDst(186691)
updateCurrDst(186746)
updateCurrDst(186763)
updateCurrDst(186919)
updateCurrDst(187033)
updateCurrDst(187346)
updateCurrDst(187546)
updateCurrDst(187561)
updateCurrDst(187585)
updateCurrDst(187651)
updateCurrDst(187692)
updateCurrDst(187735)
updateCurrDst(187821)
updateCurrDst(188091)
updateCurrDst(188224)
updateCurrDst(188234)
updateCurrDst(188279)
updateCurrDst(188387)
updateCurrDst(188408)
updateCurrDst(188413)
updateCurrDst(188562)
updateCurrDst(188633)
updateCurrDst(188657)
updateCurrDst(188685)
updateCurrDst(188790)
updateCurrDst(188815)
updateCurrDst(188936)
updateCurrDst(189142)
updateCurrDst(189156)
updateCurrDst(189210)
Heartbeat CPU 0 instructions: 77000000 cycles: 98592037 heartbeat IPC: 0.329874 cumulative IPC: 0.328476 (Simulation time: 0 hr 9 min 25 sec) 
updateCurrDst(189257)
updateCurrDst(189426)
updateCurrDst(189438)
updateCurrDst(189451)
updateCurrDst(189509)
updateCurrDst(189523)
updateCurrDst(189539)
updateCurrDst(189589)
updateCurrDst(189771)
updateCurrDst(189915)
updateCurrDst(189926)
updateCurrDst(189939)
updateCurrDst(189962)
updateCurrDst(189994)
updateCurrDst(190030)
updateCurrDst(190126)
updateCurrDst(190595)
updateCurrDst(190938)
updateCurrDst(191177)
updateCurrDst(191227)
updateCurrDst(191245)
updateCurrDst(191559)
updateCurrDst(191765)
Heartbeat CPU 0 instructions: 78000000 cycles: 101647413 heartbeat IPC: 0.327292 cumulative IPC: 0.328434 (Simulation time: 0 hr 9 min 32 sec) 
updateCurrDst(192028)
updateCurrDst(192085)
updateCurrDst(192206)
updateCurrDst(192263)
updateCurrDst(192267)
updateCurrDst(192428)
updateCurrDst(192433)
updateCurrDst(192480)
updateCurrDst(192536)
updateCurrDst(192578)
updateCurrDst(192703)
updateCurrDst(192706)
updateCurrDst(192774)
updateCurrDst(192775)
updateCurrDst(192798)
updateCurrDst(192864)
updateCurrDst(192950)
updateCurrDst(193007)
updateCurrDst(193058)
updateCurrDst(193076)
updateCurrDst(193154)
updateCurrDst(193225)
updateCurrDst(193254)
updateCurrDst(193396)
updateCurrDst(193429)
updateCurrDst(193471)
updateCurrDst(193604)
updateCurrDst(193804)
updateCurrDst(193924)
updateCurrDst(194046)
updateCurrDst(194076)
updateCurrDst(194109)
updateCurrDst(194158)
updateCurrDst(194175)
updateCurrDst(194236)
updateCurrDst(194241)
updateCurrDst(194286)
updateCurrDst(194535)
Heartbeat CPU 0 instructions: 79000000 cycles: 104675597 heartbeat IPC: 0.330231 cumulative IPC: 0.328495 (Simulation time: 0 hr 9 min 40 sec) 
updateCurrDst(194574)
updateCurrDst(194596)
updateCurrDst(194734)
updateCurrDst(194754)
updateCurrDst(194868)
updateCurrDst(194886)
updateCurrDst(194889)
updateCurrDst(195135)
updateCurrDst(195223)
updateCurrDst(195302)
updateCurrDst(195315)
updateCurrDst(195337)
updateCurrDst(195366)
updateCurrDst(195464)
updateCurrDst(195487)
updateCurrDst(195588)
updateCurrDst(195847)
updateCurrDst(195953)
updateCurrDst(195961)
updateCurrDst(196085)
updateCurrDst(196109)
updateCurrDst(196122)
updateCurrDst(196290)
updateCurrDst(196470)
updateCurrDst(196613)
updateCurrDst(196637)
updateCurrDst(196713)
updateCurrDst(196732)
updateCurrDst(196782)
updateCurrDst(196900)
updateCurrDst(196956)
updateCurrDst(196964)
updateCurrDst(197032)
updateCurrDst(197040)
updateCurrDst(197437)
updateCurrDst(197448)
updateCurrDst(197491)
Heartbeat CPU 0 instructions: 80000002 cycles: 107690074 heartbeat IPC: 0.331733 cumulative IPC: 0.328602 (Simulation time: 0 hr 9 min 47 sec) 
updateCurrDst(197547)
updateCurrDst(197574)
updateCurrDst(197683)
updateCurrDst(197846)
updateCurrDst(197862)
updateCurrDst(198171)
updateCurrDst(198319)
updateCurrDst(198329)
updateCurrDst(198398)
updateCurrDst(198428)
updateCurrDst(198601)
updateCurrDst(198700)
updateCurrDst(198923)
updateCurrDst(198966)
updateCurrDst(199070)
updateCurrDst(199139)
updateCurrDst(199242)
updateCurrDst(199257)
updateCurrDst(199356)
updateCurrDst(199378)
updateCurrDst(199392)
updateCurrDst(199409)
updateCurrDst(199532)
updateCurrDst(199581)
updateCurrDst(199666)
updateCurrDst(199764)
updateCurrDst(199881)
Heartbeat CPU 0 instructions: 81000001 cycles: 110740205 heartbeat IPC: 0.327854 cumulative IPC: 0.328578 (Simulation time: 0 hr 9 min 54 sec) 
updateCurrDst(200187)
updateCurrDst(200196)
updateCurrDst(200224)
updateCurrDst(200243)
updateCurrDst(200246)
updateCurrDst(200443)
updateCurrDst(200483)
updateCurrDst(200514)
updateCurrDst(200545)
updateCurrDst(200639)
updateCurrDst(200807)
updateCurrDst(201306)
updateCurrDst(201370)
updateCurrDst(201829)
updateCurrDst(202053)
updateCurrDst(202412)
updateCurrDst(202570)
updateCurrDst(202576)
Heartbeat CPU 0 instructions: 82000000 cycles: 113762951 heartbeat IPC: 0.330825 cumulative IPC: 0.328648 (Simulation time: 0 hr 10 min 3 sec) 
updateCurrDst(202880)
updateCurrDst(203041)
updateCurrDst(203149)
updateCurrDst(203354)
updateCurrDst(203377)
updateCurrDst(203543)
updateCurrDst(203728)
updateCurrDst(203779)
updateCurrDst(203851)
updateCurrDst(203861)
updateCurrDst(203880)
updateCurrDst(203894)
updateCurrDst(203964)
updateCurrDst(204028)
updateCurrDst(204149)
updateCurrDst(204230)
updateCurrDst(204231)
updateCurrDst(204280)
updateCurrDst(204440)
updateCurrDst(204713)
updateCurrDst(204733)
updateCurrDst(204763)
updateCurrDst(204849)
updateCurrDst(204972)
updateCurrDst(205011)
updateCurrDst(205041)
updateCurrDst(205088)
Heartbeat CPU 0 instructions: 83000002 cycles: 116848613 heartbeat IPC: 0.32408 cumulative IPC: 0.328508 (Simulation time: 0 hr 10 min 10 sec) 
updateCurrDst(205215)
updateCurrDst(205278)
updateCurrDst(205482)
updateCurrDst(205516)
updateCurrDst(205972)
updateCurrDst(205992)
updateCurrDst(206064)
updateCurrDst(206213)
updateCurrDst(206683)
updateCurrDst(206810)
updateCurrDst(206829)
updateCurrDst(206856)
updateCurrDst(206877)
updateCurrDst(206902)
updateCurrDst(206999)
updateCurrDst(207228)
updateCurrDst(207232)
updateCurrDst(207371)
updateCurrDst(207384)
updateCurrDst(207408)
updateCurrDst(207668)
updateCurrDst(207702)
updateCurrDst(207709)
updateCurrDst(207787)
updateCurrDst(207797)
updateCurrDst(207832)
updateCurrDst(208010)
updateCurrDst(208066)
updateCurrDst(208093)
updateCurrDst(208100)
updateCurrDst(208215)
Heartbeat CPU 0 instructions: 84000000 cycles: 119859897 heartbeat IPC: 0.332084 cumulative IPC: 0.328612 (Simulation time: 0 hr 10 min 17 sec) 
updateCurrDst(208369)
updateCurrDst(208942)
updateCurrDst(208972)
updateCurrDst(208981)
updateCurrDst(209281)
updateCurrDst(209457)
updateCurrDst(209526)
updateCurrDst(209614)
updateCurrDst(209690)
updateCurrDst(209727)
updateCurrDst(209783)
updateCurrDst(209786)
updateCurrDst(209809)
updateCurrDst(209819)
updateCurrDst(209888)
updateCurrDst(209968)
updateCurrDst(209978)
updateCurrDst(210040)
updateCurrDst(210071)
updateCurrDst(210386)
updateCurrDst(210461)
updateCurrDst(210624)
updateCurrDst(210702)
updateCurrDst(210767)
updateCurrDst(210937)
Heartbeat CPU 0 instructions: 85000001 cycles: 122903154 heartbeat IPC: 0.328596 cumulative IPC: 0.328611 (Simulation time: 0 hr 10 min 25 sec) 
updateCurrDst(210981)
updateCurrDst(211096)
updateCurrDst(211133)
updateCurrDst(211135)
updateCurrDst(211407)
updateCurrDst(211829)
updateCurrDst(211838)
updateCurrDst(212206)
updateCurrDst(212382)
updateCurrDst(212576)
updateCurrDst(212580)
updateCurrDst(212582)
updateCurrDst(212647)
updateCurrDst(212650)
updateCurrDst(212652)
updateCurrDst(212703)
updateCurrDst(212971)
updateCurrDst(213099)
updateCurrDst(213105)
updateCurrDst(213312)
updateCurrDst(213376)
updateCurrDst(213456)
updateCurrDst(213600)
updateCurrDst(213669)
updateCurrDst(213741)
updateCurrDst(213945)
updateCurrDst(213961)
Heartbeat CPU 0 instructions: 86000000 cycles: 125912832 heartbeat IPC: 0.332261 cumulative IPC: 0.328712 (Simulation time: 0 hr 10 min 32 sec) 
updateCurrDst(214322)
updateCurrDst(214344)
updateCurrDst(214409)
updateCurrDst(214434)
updateCurrDst(214452)
updateCurrDst(214541)
updateCurrDst(214609)
updateCurrDst(214732)
updateCurrDst(214904)
updateCurrDst(214923)
updateCurrDst(215080)
updateCurrDst(215133)
updateCurrDst(215224)
updateCurrDst(215431)
updateCurrDst(215537)
updateCurrDst(215543)
updateCurrDst(215650)
updateCurrDst(215781)
updateCurrDst(215962)
updateCurrDst(216009)
updateCurrDst(216487)
updateCurrDst(216518)
Heartbeat CPU 0 instructions: 87000000 cycles: 128950658 heartbeat IPC: 0.329183 cumulative IPC: 0.328724 (Simulation time: 0 hr 10 min 40 sec) 
updateCurrDst(216798)
updateCurrDst(216803)
updateCurrDst(217020)
updateCurrDst(217044)
updateCurrDst(217122)
updateCurrDst(217239)
updateCurrDst(217293)
updateCurrDst(217306)
updateCurrDst(217497)
updateCurrDst(217580)
updateCurrDst(217627)
updateCurrDst(217775)
updateCurrDst(217828)
updateCurrDst(217943)
updateCurrDst(217945)
updateCurrDst(218009)
updateCurrDst(218121)
updateCurrDst(218231)
updateCurrDst(218331)
updateCurrDst(218427)
updateCurrDst(218477)
updateCurrDst(218571)
Heartbeat CPU 0 instructions: 88000000 cycles: 132040775 heartbeat IPC: 0.323612 cumulative IPC: 0.328588 (Simulation time: 0 hr 10 min 47 sec) 
updateCurrDst(218687)
updateCurrDst(218804)
updateCurrDst(218806)
updateCurrDst(219016)
updateCurrDst(219017)
updateCurrDst(219128)
updateCurrDst(219204)
updateCurrDst(219278)
updateCurrDst(219505)
updateCurrDst(219598)
updateCurrDst(219737)
updateCurrDst(219740)
updateCurrDst(219743)
updateCurrDst(219857)
updateCurrDst(219871)
updateCurrDst(219921)
updateCurrDst(220013)
updateCurrDst(220111)
updateCurrDst(220147)
updateCurrDst(220262)
updateCurrDst(220299)
updateCurrDst(220466)
updateCurrDst(220481)
updateCurrDst(220509)
updateCurrDst(220553)
updateCurrDst(220582)
updateCurrDst(220704)
updateCurrDst(220895)
Heartbeat CPU 0 instructions: 89000000 cycles: 135097288 heartbeat IPC: 0.32717 cumulative IPC: 0.328551 (Simulation time: 0 hr 10 min 54 sec) 
updateCurrDst(221286)
updateCurrDst(221516)
updateCurrDst(221525)
updateCurrDst(221755)
updateCurrDst(221770)
updateCurrDst(221878)
updateCurrDst(221898)
updateCurrDst(221944)
updateCurrDst(222028)
updateCurrDst(222284)
updateCurrDst(222391)
updateCurrDst(222586)
updateCurrDst(223124)
updateCurrDst(223133)
updateCurrDst(223282)
updateCurrDst(223331)
updateCurrDst(223440)
updateCurrDst(223574)
updateCurrDst(223613)
Heartbeat CPU 0 instructions: 90000000 cycles: 138155331 heartbeat IPC: 0.327007 cumulative IPC: 0.328512 (Simulation time: 0 hr 11 min 2 sec) 
updateCurrDst(223660)
updateCurrDst(223716)
updateCurrDst(223799)
updateCurrDst(223908)
updateCurrDst(224229)
updateCurrDst(224380)
updateCurrDst(224495)
updateCurrDst(224560)
updateCurrDst(224572)
updateCurrDst(224575)
updateCurrDst(224592)
updateCurrDst(224629)
updateCurrDst(224636)
updateCurrDst(224702)
updateCurrDst(224780)
updateCurrDst(224901)
updateCurrDst(224979)
updateCurrDst(224991)
updateCurrDst(225001)
updateCurrDst(225152)
updateCurrDst(225271)
updateCurrDst(225463)
updateCurrDst(225513)
updateCurrDst(225656)
updateCurrDst(225931)
updateCurrDst(225938)
updateCurrDst(226132)
updateCurrDst(226208)
updateCurrDst(226221)
Heartbeat CPU 0 instructions: 91000000 cycles: 141184756 heartbeat IPC: 0.330096 cumulative IPC: 0.328551 (Simulation time: 0 hr 11 min 9 sec) 
updateCurrDst(226711)
updateCurrDst(226761)
updateCurrDst(226781)
updateCurrDst(226983)
updateCurrDst(227299)
updateCurrDst(227345)
updateCurrDst(227352)
updateCurrDst(227416)
updateCurrDst(227600)
updateCurrDst(227710)
updateCurrDst(227970)
updateCurrDst(228163)
updateCurrDst(228349)
updateCurrDst(228353)
updateCurrDst(228432)
updateCurrDst(228452)
updateCurrDst(228531)
updateCurrDst(228952)
updateCurrDst(228986)
updateCurrDst(229033)
Heartbeat CPU 0 instructions: 92000000 cycles: 144226287 heartbeat IPC: 0.328782 cumulative IPC: 0.328556 (Simulation time: 0 hr 11 min 17 sec) 
updateCurrDst(229123)
updateCurrDst(229136)
updateCurrDst(229148)
updateCurrDst(229324)
updateCurrDst(229325)
updateCurrDst(229346)
updateCurrDst(229591)
updateCurrDst(229910)
updateCurrDst(229942)
updateCurrDst(229975)
updateCurrDst(230211)
updateCurrDst(230220)
updateCurrDst(230382)
updateCurrDst(230412)
updateCurrDst(230437)
updateCurrDst(230487)
updateCurrDst(230491)
updateCurrDst(230523)
updateCurrDst(230532)
updateCurrDst(230674)
updateCurrDst(230701)
updateCurrDst(230853)
updateCurrDst(230880)
updateCurrDst(230902)
updateCurrDst(231339)
Heartbeat CPU 0 instructions: 93000000 cycles: 147294218 heartbeat IPC: 0.325953 cumulative IPC: 0.328495 (Simulation time: 0 hr 11 min 24 sec) 
updateCurrDst(231527)
updateCurrDst(231668)
updateCurrDst(231802)
updateCurrDst(231806)
updateCurrDst(231812)
updateCurrDst(231925)
updateCurrDst(232114)
updateCurrDst(232227)
updateCurrDst(232235)
updateCurrDst(232236)
updateCurrDst(232601)
updateCurrDst(232617)
updateCurrDst(232717)
updateCurrDst(232824)
updateCurrDst(232930)
updateCurrDst(233029)
updateCurrDst(233059)
updateCurrDst(233140)
updateCurrDst(233297)
updateCurrDst(233373)
updateCurrDst(233491)
updateCurrDst(233510)
updateCurrDst(233664)
Heartbeat CPU 0 instructions: 94000002 cycles: 150325127 heartbeat IPC: 0.329935 cumulative IPC: 0.328528 (Simulation time: 0 hr 11 min 32 sec) 
updateCurrDst(234260)
updateCurrDst(234276)
updateCurrDst(234333)
updateCurrDst(234390)
updateCurrDst(234430)
updateCurrDst(234489)
updateCurrDst(234788)
updateCurrDst(235012)
updateCurrDst(235049)
updateCurrDst(235191)
updateCurrDst(235223)
updateCurrDst(235237)
updateCurrDst(235241)
updateCurrDst(235291)
updateCurrDst(235377)
updateCurrDst(235464)
updateCurrDst(235681)
updateCurrDst(235697)
updateCurrDst(235962)
updateCurrDst(235987)
updateCurrDst(236220)
updateCurrDst(236249)
updateCurrDst(236338)
updateCurrDst(236384)
Heartbeat CPU 0 instructions: 95000000 cycles: 153407895 heartbeat IPC: 0.324383 cumulative IPC: 0.328435 (Simulation time: 0 hr 11 min 38 sec) 
updateCurrDst(236821)
updateCurrDst(236845)
updateCurrDst(236909)
updateCurrDst(237115)
updateCurrDst(237155)
updateCurrDst(237268)
updateCurrDst(237344)
updateCurrDst(237526)
updateCurrDst(237679)
updateCurrDst(237686)
updateCurrDst(237706)
updateCurrDst(237719)
updateCurrDst(237754)
updateCurrDst(237930)
updateCurrDst(237979)
updateCurrDst(238005)
updateCurrDst(238168)
updateCurrDst(238172)
updateCurrDst(238202)
updateCurrDst(238309)
updateCurrDst(238398)
updateCurrDst(238491)
updateCurrDst(238499)
updateCurrDst(238503)
Heartbeat CPU 0 instructions: 96000000 cycles: 156509022 heartbeat IPC: 0.322463 cumulative IPC: 0.328302 (Simulation time: 0 hr 11 min 46 sec) 
updateCurrDst(238671)
updateCurrDst(238765)
updateCurrDst(238796)
updateCurrDst(238893)
updateCurrDst(239043)
updateCurrDst(239441)
updateCurrDst(239626)
updateCurrDst(239737)
updateCurrDst(240049)
updateCurrDst(240113)
updateCurrDst(240280)
updateCurrDst(240323)
updateCurrDst(240418)
updateCurrDst(240438)
updateCurrDst(240451)
updateCurrDst(240465)
updateCurrDst(240513)
updateCurrDst(240744)
updateCurrDst(240759)
updateCurrDst(240767)
updateCurrDst(240807)
updateCurrDst(240818)
updateCurrDst(240855)
updateCurrDst(240938)
updateCurrDst(240961)
updateCurrDst(240967)
updateCurrDst(241007)
Heartbeat CPU 0 instructions: 97000003 cycles: 159591044 heartbeat IPC: 0.324463 cumulative IPC: 0.32822 (Simulation time: 0 hr 11 min 53 sec) 
updateCurrDst(241357)
updateCurrDst(241365)
updateCurrDst(241394)
updateCurrDst(241412)
updateCurrDst(241423)
updateCurrDst(241465)
updateCurrDst(241484)
updateCurrDst(241532)
updateCurrDst(241665)
updateCurrDst(241892)
updateCurrDst(241992)
updateCurrDst(242067)
updateCurrDst(242362)
updateCurrDst(242407)
updateCurrDst(242432)
updateCurrDst(242443)
updateCurrDst(242583)
updateCurrDst(242603)
updateCurrDst(242675)
updateCurrDst(242789)
updateCurrDst(242819)
updateCurrDst(242947)
updateCurrDst(243112)
updateCurrDst(243232)
updateCurrDst(243286)
updateCurrDst(243315)
updateCurrDst(243449)
updateCurrDst(243488)
updateCurrDst(243491)
updateCurrDst(243495)
updateCurrDst(243696)
updateCurrDst(243717)
updateCurrDst(243962)
updateCurrDst(243967)
Heartbeat CPU 0 instructions: 98000002 cycles: 162649752 heartbeat IPC: 0.326935 cumulative IPC: 0.328193 (Simulation time: 0 hr 12 min 1 sec) 
updateCurrDst(244024)
updateCurrDst(244026)
updateCurrDst(244033)
updateCurrDst(244134)
updateCurrDst(244189)
updateCurrDst(244204)
updateCurrDst(244215)
updateCurrDst(244224)
updateCurrDst(244434)
updateCurrDst(244493)
updateCurrDst(244495)
updateCurrDst(244517)
updateCurrDst(244531)
updateCurrDst(244664)
updateCurrDst(244800)
updateCurrDst(244881)
updateCurrDst(245030)
updateCurrDst(245264)
updateCurrDst(245279)
updateCurrDst(245796)
updateCurrDst(245873)
updateCurrDst(245903)
updateCurrDst(246023)
updateCurrDst(246303)
updateCurrDst(246355)
updateCurrDst(246461)
Heartbeat CPU 0 instructions: 99000000 cycles: 165721697 heartbeat IPC: 0.325526 cumulative IPC: 0.328138 (Simulation time: 0 hr 12 min 8 sec) 
updateCurrDst(247049)
updateCurrDst(247082)
updateCurrDst(247337)
updateCurrDst(247437)
updateCurrDst(247438)
updateCurrDst(247492)
updateCurrDst(247845)
updateCurrDst(247907)
updateCurrDst(247913)
updateCurrDst(248155)
updateCurrDst(248162)
updateCurrDst(248257)
updateCurrDst(248354)
updateCurrDst(248469)
updateCurrDst(248540)
updateCurrDst(248958)
updateCurrDst(249001)
updateCurrDst(249011)
updateCurrDst(249026)
updateCurrDst(249054)
updateCurrDst(249377)
updateCurrDst(249415)
Heartbeat CPU 0 instructions: 100000001 cycles: 168793844 heartbeat IPC: 0.325506 cumulative IPC: 0.328085 (Simulation time: 0 hr 12 min 15 sec) 
updateCurrDst(249774)
updateCurrDst(249896)
updateCurrDst(249932)
updateCurrDst(250012)
updateCurrDst(250218)
updateCurrDst(250265)
updateCurrDst(250642)
updateCurrDst(250710)
updateCurrDst(250711)
updateCurrDst(250737)
updateCurrDst(250755)
updateCurrDst(250874)
updateCurrDst(250878)
updateCurrDst(250966)
updateCurrDst(250969)
updateCurrDst(251034)
updateCurrDst(251120)
updateCurrDst(251202)
updateCurrDst(251264)
updateCurrDst(251675)
updateCurrDst(251686)
updateCurrDst(251741)
updateCurrDst(251990)
updateCurrDst(252130)
Heartbeat CPU 0 instructions: 101000001 cycles: 171862882 heartbeat IPC: 0.325835 cumulative IPC: 0.328041 (Simulation time: 0 hr 12 min 23 sec) 
updateCurrDst(252526)
updateCurrDst(252814)
updateCurrDst(252914)
updateCurrDst(252955)
updateCurrDst(252964)
updateCurrDst(253027)
updateCurrDst(253091)
updateCurrDst(253183)
updateCurrDst(253186)
updateCurrDst(253238)
updateCurrDst(253278)
updateCurrDst(253280)
updateCurrDst(253529)
updateCurrDst(253964)
updateCurrDst(254194)
updateCurrDst(254366)
updateCurrDst(254519)
updateCurrDst(254525)
updateCurrDst(254548)
updateCurrDst(254576)
updateCurrDst(254588)
updateCurrDst(254735)
updateCurrDst(254763)
updateCurrDst(254844)
updateCurrDst(254903)
updateCurrDst(254911)
updateCurrDst(254971)
Heartbeat CPU 0 instructions: 102000000 cycles: 174922993 heartbeat IPC: 0.326785 cumulative IPC: 0.328016 (Simulation time: 0 hr 12 min 30 sec) 
updateCurrDst(255098)
updateCurrDst(255284)
updateCurrDst(255308)
updateCurrDst(255351)
updateCurrDst(255435)
updateCurrDst(255509)
updateCurrDst(255520)
updateCurrDst(255758)
updateCurrDst(255796)
updateCurrDst(255882)
updateCurrDst(256006)
updateCurrDst(256251)
updateCurrDst(256316)
updateCurrDst(256390)
updateCurrDst(256454)
updateCurrDst(256616)
updateCurrDst(256735)
updateCurrDst(257013)
updateCurrDst(257080)
updateCurrDst(257081)
updateCurrDst(257327)
updateCurrDst(257345)
updateCurrDst(257453)
updateCurrDst(257474)
Heartbeat CPU 0 instructions: 103000003 cycles: 178001971 heartbeat IPC: 0.324784 cumulative IPC: 0.327955 (Simulation time: 0 hr 12 min 38 sec) 
updateCurrDst(257690)
updateCurrDst(257942)
updateCurrDst(258049)
updateCurrDst(258080)
updateCurrDst(258337)
updateCurrDst(258351)
updateCurrDst(258371)
updateCurrDst(258436)
updateCurrDst(258440)
updateCurrDst(258444)
updateCurrDst(258490)
updateCurrDst(258833)
updateCurrDst(258948)
updateCurrDst(258966)
updateCurrDst(259011)
updateCurrDst(259051)
updateCurrDst(259076)
updateCurrDst(259189)
updateCurrDst(259191)
updateCurrDst(259221)
updateCurrDst(259260)
updateCurrDst(259383)
updateCurrDst(259557)
updateCurrDst(259667)
updateCurrDst(259933)
updateCurrDst(260089)
updateCurrDst(260233)
updateCurrDst(260249)
Heartbeat CPU 0 instructions: 104000001 cycles: 181089237 heartbeat IPC: 0.323911 cumulative IPC: 0.327879 (Simulation time: 0 hr 12 min 45 sec) 
updateCurrDst(260349)
updateCurrDst(260513)
updateCurrDst(260550)
updateCurrDst(260599)
updateCurrDst(260708)
updateCurrDst(260945)
updateCurrDst(261088)
updateCurrDst(261136)
updateCurrDst(261303)
updateCurrDst(261349)
updateCurrDst(261449)
updateCurrDst(261465)
updateCurrDst(261512)
updateCurrDst(261551)
updateCurrDst(261587)
updateCurrDst(261714)
updateCurrDst(261724)
updateCurrDst(261761)
updateCurrDst(261774)
updateCurrDst(261812)
updateCurrDst(261928)
updateCurrDst(261998)
updateCurrDst(262052)
updateCurrDst(262112)
*** Reached end of trace for Core: 0 Repeating trace: testcases/pull_g18_k2.xzafter: 104869771
Heartbeat CPU 0 instructions: 105000002 cycles: 184252865 heartbeat IPC: 0.316093 cumulative IPC: 0.327657 (Simulation time: 0 hr 12 min 54 sec) 
PIN_registerGraphs(test_g18_k2.sg,1)
Graphh Number of Nodes: 262140
Heartbeat CPU 0 instructions: 106000000 cycles: 187006802 heartbeat IPC: 0.363116 cumulative IPC: 0.328229 (Simulation time: 0 hr 13 min 4 sec) 
Heartbeat CPU 0 instructions: 107000000 cycles: 188506806 heartbeat IPC: 0.666665 cumulative IPC: 0.331179 (Simulation time: 0 hr 13 min 10 sec) 
Heartbeat CPU 0 instructions: 108000001 cycles: 190008820 heartbeat IPC: 0.665773 cumulative IPC: 0.334073 (Simulation time: 0 hr 13 min 16 sec) 
Heartbeat CPU 0 instructions: 109000001 cycles: 191508828 heartbeat IPC: 0.666663 cumulative IPC: 0.336922 (Simulation time: 0 hr 13 min 21 sec) 
PIN_updateRegBaseBound( 94042230468752, 94042231517312)
Heartbeat CPU 0 instructions: 110000000 cycles: 193090019 heartbeat IPC: 0.632434 cumulative IPC: 0.339567 (Simulation time: 0 hr 13 min 27 sec) 
Finished CPU 0 instructions: 60000000 cycles: 176695700 cumulative IPC: 0.339567 (Simulation time: 0 hr 13 min 27 sec) 

ChampSim completed all CPUs

Region of Interest Statistics

CPU 0 cumulative IPC: 0.339567 instructions: 60000000 cycles: 176695700

Total ROB STALLS:                   23018981
STLB MISS ROB STALLS:                   1010
L1D  LOAD MISS ROB STALLS:            552024  Translation MISS ROB STALLS:             0
L2C  LOAD MISS ROB STALLS:            238298  Translation MISS ROB STALLS:             0
LLC  LOAD MISS ROB STALLS:             72429  Translation MISS ROB STALLS:             0

ITLB TOTAL     ACCESS:           8586382  HIT:    8586345  MISS:         37  HIT %:    99.9996  MISS %: 0.000430915   MPKI: 0.000616667
ITLB LOAD TRANSLATION ACCESS:    8586382  HIT:    8586345  MISS:         37  HIT %:    99.9996  MISS %: 0.000430915   MPKI: 0.000616667
ITLB AVERAGE MISS LATENCY:       212.568 cycles
ITLB RQ ACCESS:     9474509	FORWARD:           0	MERGED:       888124	TO_CACHE:    8586385

DTLB TOTAL     ACCESS:          17666296  HIT:   17286334  MISS:     379962  HIT %:    97.8492  MISS %:    2.15077   MPKI: 6.3327
DTLB LOAD TRANSLATION ACCESS:   17666296  HIT:   17286334  MISS:     379962  HIT %:    97.8492  MISS %:    2.15077   MPKI: 6.3327
DTLB AVERAGE MISS LATENCY:       9.66253 cycles
DTLB RQ ACCESS:    23517857	FORWARD:           0	MERGED:      5850060	TO_CACHE:   17667797

STLB TOTAL     ACCESS:            379999  HIT:     378840  MISS:       1159  HIT %:     99.695  MISS %:   0.305001   MPKI: 0.0193167
STLB LOAD TRANSLATION ACCESS:     379999  HIT:     378840  MISS:       1159  HIT %:     99.695  MISS %:   0.305001   MPKI: 0.0193167
STLB AVERAGE MISS LATENCY:       223.699 cycles
STLB RQ ACCESS:      379999	FORWARD:           0	MERGED:            0	TO_CACHE:     379999

PSCL5 TOTAL     ACCESS:              1159  HIT:       1159  MISS:          0  HIT %:        100  MISS %:          0   MPKI: 0
PSCL5 LOAD TRANSLATION ACCESS:       1159  HIT:       1159  MISS:          0  HIT %:        100  MISS %:          0   MPKI: 0

PSCL4 TOTAL     ACCESS:              1159  HIT:       1159  MISS:          0  HIT %:        100  MISS %:          0   MPKI: 0
PSCL4 LOAD TRANSLATION ACCESS:       1159  HIT:       1159  MISS:          0  HIT %:        100  MISS %:          0   MPKI: 0

PSCL3 TOTAL     ACCESS:              1159  HIT:       1159  MISS:          0  HIT %:        100  MISS %:          0   MPKI: 0
PSCL3 LOAD TRANSLATION ACCESS:       1159  HIT:       1159  MISS:          0  HIT %:        100  MISS %:          0   MPKI: 0

PSCL2 TOTAL     ACCESS:              1159  HIT:       1158  MISS:          1  HIT %:    99.9137  MISS %:  0.0862813   MPKI: 1.66667e-05
PSCL2 LOAD TRANSLATION ACCESS:       1159  HIT:       1158  MISS:          1  HIT %:    99.9137  MISS %:  0.0862813   MPKI: 1.66667e-05

L1D TOTAL     ACCESS:          23206386  HIT:   22617936  MISS:     588450  HIT %:    97.4643  MISS %:    2.53572   MPKI: 9.8075  USED:     117743  UNUSED:     470707
L1D LOAD      ACCESS:           9434629  HIT:    8882429  MISS:     552200  HIT %:    94.1471  MISS %:    5.85291   MPKI: 9.20333  USED:     117582  UNUSED:     434920
L1D RFO       ACCESS:          13771757  HIT:   13735507  MISS:      36250  HIT %:    99.7368  MISS %:    0.26322   MPKI: 0.604167
L1D PTL1 TRANSLATION ACCESS:          0  HIT:          0  MISS:          0  HIT %:       -nan  MISS %:       -nan   MPKI: 0
L1D PTL2 TRANSLATION ACCESS:          0  HIT:          0  MISS:          0  HIT %:       -nan  MISS %:       -nan   MPKI: 0
L1D PTL3 TRANSLATION ACCESS:          0  HIT:          0  MISS:          0  HIT %:       -nan  MISS %:       -nan   MPKI: 0
L1D PTL4 TRANSLATION ACCESS:          0  HIT:          0  MISS:          0  HIT %:       -nan  MISS %:       -nan   MPKI: 0
L1D PTL5 TRANSLATION ACCESS:          0  HIT:          0  MISS:          0  HIT %:       -nan  MISS %:       -nan   MPKI: 0
L1D TOTAL EVICTIONS:             588450  TRANSLATION EVICTIONS:          0  TRANSLATION EVICTING TRANSALTION:          0  TRANSLATION EVICTING LOAD:          0  LOAD EVICTING TRANSALTION:          0  LOAD EVICTING LOAD:      551348
L1D AVERAGE MISS LATENCY:       50.0254 cycles  AVERAGE LOAD MISS LATENCY:       44.7881 cycles  AVERAGE LOAD TRANSLATION MISS LATENCY:          -nan cycles
L1D RQ ACCESS:    14595985	FORWARD:           0	MERGED:      3796950	TO_CACHE:    9434670
L1D WQ ACCESS:    14429103	FORWARD:     1364365	MERGED:       345916	TO_CACHE:   14083187

L1I TOTAL     ACCESS:           9474489  HIT:    9474285  MISS:        204  HIT %:    99.9978  MISS %: 0.00215315   MPKI: 0.0034
L1I LOAD      ACCESS:           9474489  HIT:    9474285  MISS:        204  HIT %:    99.9978  MISS %: 0.00215315   MPKI: 0.0034
L1I AVERAGE MISS LATENCY:       198.245 cycles
L1I RQ ACCESS:    14791030	FORWARD:           0	MERGED:      5316521	TO_CACHE:    9474509

L2C TOTAL     ACCESS:            633675  HIT:     359007  MISS:     274668  HIT %:    56.6548  MISS %:    43.3452   MPKI: 4.5778  USED:      79906  UNUSED:     194762
L2C LOAD      ACCESS:            552404  HIT:     313781  MISS:     238623  HIT %:    56.8028  MISS %:    43.1972   MPKI: 3.97705  USED:      79847  UNUSED:     166492
L2C RFO       ACCESS:             36250  HIT:        255  MISS:      35995  HIT %:   0.703448  MISS %:    99.2966   MPKI: 0.599917
L2C WRITEBACK ACCESS:             45021  HIT:      44971  MISS:         50  HIT %:    99.8889  MISS %:   0.111059   MPKI: 0.000833333
L2C PTL1 TRANSLATION ACCESS:          0  HIT:          0  MISS:          0  HIT %:       -nan  MISS %:       -nan   MPKI: 0
L2C PTL2 TRANSLATION ACCESS:          0  HIT:          0  MISS:          0  HIT %:       -nan  MISS %:       -nan   MPKI: 0
L2C PTL3 TRANSLATION ACCESS:          0  HIT:          0  MISS:          0  HIT %:       -nan  MISS %:       -nan   MPKI: 0
L2C PTL4 TRANSLATION ACCESS:          0  HIT:          0  MISS:          0  HIT %:       -nan  MISS %:       -nan   MPKI: 0
L2C PTL5 TRANSLATION ACCESS:          0  HIT:          0  MISS:          0  HIT %:       -nan  MISS %:       -nan   MPKI: 0
L2C TOTAL EVICTIONS:             274668  TRANSLATION EVICTIONS:          0  TRANSLATION EVICTING TRANSALTION:          0  TRANSLATION EVICTING LOAD:          0  LOAD EVICTING TRANSALTION:          0  LOAD EVICTING LOAD:      238053
L2C AVERAGE MISS LATENCY:       75.1753 cycles  AVERAGE LOAD MISS LATENCY:       69.0902 cycles  AVERAGE LOAD TRANSLATION MISS LATENCY:          -nan cycles
L2C RQ ACCESS:      588654	FORWARD:           0	MERGED:            0	TO_CACHE:     588654
L2C WQ ACCESS:       45021	FORWARD:           0	MERGED:            0	TO_CACHE:      45021

LLC TOTAL     ACCESS:            312332  HIT:     221415  MISS:      90917  HIT %:    70.8909  MISS %:    29.1091   MPKI: 1.51528  USED:       9180  UNUSED:      81737
LLC LOAD      ACCESS:            238623  HIT:     165903  MISS:      72720  HIT %:    69.5252  MISS %:    30.4748   MPKI: 1.212  USED:       7907  UNUSED:      81639
LLC RFO       ACCESS:             35995  HIT:      17819  MISS:      18176  HIT %:    49.5041  MISS %:    50.4959   MPKI: 0.302933
LLC WRITEBACK ACCESS:             37714  HIT:      37693  MISS:         21  HIT %:    99.9443  MISS %:  0.0556822   MPKI: 0.00035
LLC PTL1 TRANSLATION ACCESS:          0  HIT:          0  MISS:          0  HIT %:       -nan  MISS %:       -nan   MPKI: 0
LLC PTL2 TRANSLATION ACCESS:          0  HIT:          0  MISS:          0  HIT %:       -nan  MISS %:       -nan   MPKI: 0
LLC PTL3 TRANSLATION ACCESS:          0  HIT:          0  MISS:          0  HIT %:       -nan  MISS %:       -nan   MPKI: 0
LLC PTL4 TRANSLATION ACCESS:          0  HIT:          0  MISS:          0  HIT %:       -nan  MISS %:       -nan   MPKI: 0
LLC PTL5 TRANSLATION ACCESS:          0  HIT:          0  MISS:          0  HIT %:       -nan  MISS %:       -nan   MPKI: 0
LLC TOTAL EVICTIONS:              90917  TRANSLATION EVICTIONS:          0  TRANSLATION EVICTING TRANSALTION:          0  TRANSLATION EVICTING LOAD:          0  LOAD EVICTING TRANSALTION:          0  LOAD EVICTING LOAD:       71476
LLC AVERAGE MISS LATENCY:       136.492 cycles  AVERAGE LOAD MISS LATENCY:       128.267 cycles  AVERAGE LOAD TRANSLATION MISS LATENCY:          -nan cycles
LLC RQ ACCESS:      274618	FORWARD:           0	MERGED:            0	TO_CACHE:     274618
LLC WQ ACCESS:       37714	FORWARD:           0	MERGED:            0	TO_CACHE:      37714


RAW hits: 11500777
Loads Generated: 26096762
Loads sent to L1D: 14595985
Stores Generated: 14429103
Stores sent to L1D: 14429103
Major fault: 0 Minor fault: 2256
Allocated PAGES: 2256
IRREG DATA L1D ACCESS: 1218970
L2C ACCESSES: 895704
L2C MISSES: 330552

DRAM Statistics
 CHANNEL 0
 RQ ROW_BUFFER_HIT:      32270  ROW_BUFFER_MISS:      59785
 DBUS_CONGESTED:          3
 WQ ROW_BUFFER_HIT:       4730  ROW_BUFFER_MISS:      11934  FULL:          0

 AVG_CONGESTED_CYCLE: 8

CPU 0 Branch Prediction Accuracy: 98.6362% MPKI: 1.78668 Average ROB Occupancy at Mispredict: 14.5237
Branch types
NOT_BRANCH: 52139391 86.899%
BRANCH_DIRECT_JUMP: 0 0%
BRANCH_INDIRECT: 1261086 2.10181%
BRANCH_CONDITIONAL: 0 0%
BRANCH_DIRECT_CALL: 143664 0.23944%
BRANCH_INDIRECT_CALL: 2308784 3.84797%
BRANCH_RETURN: 2452448 4.08741%
BRANCH_OTHER: 1694283 2.82381%

DRAM PAGES: 1048576
Allocated PAGES: 2256
