
*** ChampSim Multicore Out-of-Order Simulator ***

Warmup Instructions: 50000000
Simulation Instructions: 60000000
Number of CPUs: 1
LLC sets: 2048
LLC ways: 16
Off-chip DRAM Size: 4096 MB Channels: 1 Width: 64-bit Data Rate: 6400 MT/s
CPU 0 runs testcases/pull_g18_k2.xz
.xz
BTB has LRU replacement policy
ITLB has LRU replacement policy
DTLB has LRU replacement policy
STLB has LRU replacement policy
L1I has LRU replacement policy
L1D has LRU replacement policy
L2C has LRU replacement policy
Initialize DRRIP state for LLC
PIN_registerGraphs(test_g18_k2.sg,1)
Graphh Number of Nodes: 262140
Heartbeat CPU 0 instructions: 1000003 cycles: 347856 heartbeat IPC: 2.87476 cumulative IPC: 2.87476 (Simulation time: 0 hr 0 min 6 sec) 
Heartbeat CPU 0 instructions: 2000003 cycles: 681190 heartbeat IPC: 2.99999 cumulative IPC: 2.93604 (Simulation time: 0 hr 0 min 9 sec) 
Heartbeat CPU 0 instructions: 3000002 cycles: 1014462 heartbeat IPC: 3.00055 cumulative IPC: 2.95723 (Simulation time: 0 hr 0 min 13 sec) 
Heartbeat CPU 0 instructions: 4000001 cycles: 1347794 heartbeat IPC: 3.00001 cumulative IPC: 2.96781 (Simulation time: 0 hr 0 min 17 sec) 
Heartbeat CPU 0 instructions: 5000002 cycles: 1681128 heartbeat IPC: 3 cumulative IPC: 2.97419 (Simulation time: 0 hr 0 min 20 sec) 
PIN_updateRegBaseBound( 94042230468752, 94042231517312)
updateCurrDst(37)
updateCurrDst(127)
updateCurrDst(183)
updateCurrDst(321)
updateCurrDst(337)
updateCurrDst(352)
updateCurrDst(730)
updateCurrDst(865)
updateCurrDst(876)
updateCurrDst(910)
updateCurrDst(969)
updateCurrDst(1012)
updateCurrDst(1098)
updateCurrDst(1587)
updateCurrDst(1615)
updateCurrDst(2146)
updateCurrDst(2161)
updateCurrDst(2251)
updateCurrDst(2263)
updateCurrDst(2350)
updateCurrDst(2453)
Heartbeat CPU 0 instructions: 6000001 cycles: 2009087 heartbeat IPC: 3.04916 cumulative IPC: 2.98643 (Simulation time: 0 hr 0 min 27 sec) 
updateCurrDst(2494)
updateCurrDst(2523)
updateCurrDst(2564)
updateCurrDst(2622)
updateCurrDst(3079)
updateCurrDst(3131)
updateCurrDst(3195)
updateCurrDst(3267)
updateCurrDst(3314)
updateCurrDst(3364)
updateCurrDst(3455)
updateCurrDst(3467)
updateCurrDst(3613)
updateCurrDst(3652)
updateCurrDst(3790)
updateCurrDst(3993)
updateCurrDst(3995)
updateCurrDst(4021)
updateCurrDst(4023)
updateCurrDst(4072)
updateCurrDst(4184)
updateCurrDst(4238)
updateCurrDst(4325)
updateCurrDst(4546)
updateCurrDst(4564)
updateCurrDst(4572)
updateCurrDst(4658)
updateCurrDst(4841)
updateCurrDst(4859)
updateCurrDst(4870)
Heartbeat CPU 0 instructions: 7000002 cycles: 2332900 heartbeat IPC: 3.08821 cumulative IPC: 3.00056 (Simulation time: 0 hr 0 min 33 sec) 
updateCurrDst(4975)
updateCurrDst(5132)
updateCurrDst(5202)
updateCurrDst(5268)
updateCurrDst(5488)
updateCurrDst(5659)
updateCurrDst(5759)
updateCurrDst(5829)
updateCurrDst(5851)
updateCurrDst(5921)
updateCurrDst(5936)
updateCurrDst(6101)
updateCurrDst(6127)
updateCurrDst(6133)
updateCurrDst(6320)
updateCurrDst(6414)
updateCurrDst(6583)
updateCurrDst(6656)
updateCurrDst(6883)
updateCurrDst(6967)
updateCurrDst(7014)
updateCurrDst(7033)
updateCurrDst(7145)
updateCurrDst(7243)
updateCurrDst(7306)
updateCurrDst(7413)
Heartbeat CPU 0 instructions: 8000002 cycles: 2658989 heartbeat IPC: 3.06665 cumulative IPC: 3.00866 (Simulation time: 0 hr 0 min 40 sec) 
updateCurrDst(7465)
updateCurrDst(7588)
updateCurrDst(7696)
updateCurrDst(7727)
updateCurrDst(7733)
updateCurrDst(8059)
updateCurrDst(8210)
updateCurrDst(8321)
updateCurrDst(8612)
updateCurrDst(8711)
updateCurrDst(8870)
updateCurrDst(8942)
updateCurrDst(8972)
updateCurrDst(8998)
updateCurrDst(9251)
updateCurrDst(9257)
updateCurrDst(9364)
updateCurrDst(9448)
updateCurrDst(9669)
updateCurrDst(9716)
updateCurrDst(9733)
updateCurrDst(9794)
updateCurrDst(9916)
updateCurrDst(9945)
updateCurrDst(10025)
updateCurrDst(10061)
updateCurrDst(10077)
updateCurrDst(10128)
updateCurrDst(10168)
updateCurrDst(10267)
updateCurrDst(10272)
updateCurrDst(10343)
updateCurrDst(10345)
Heartbeat CPU 0 instructions: 9000001 cycles: 2989746 heartbeat IPC: 3.02336 cumulative IPC: 3.01029 (Simulation time: 0 hr 0 min 47 sec) 
updateCurrDst(10455)
updateCurrDst(10585)
updateCurrDst(10771)
updateCurrDst(10808)
updateCurrDst(10811)
updateCurrDst(10847)
updateCurrDst(10853)
updateCurrDst(10970)
updateCurrDst(11024)
updateCurrDst(11046)
updateCurrDst(11165)
updateCurrDst(11220)
updateCurrDst(11242)
updateCurrDst(11316)
updateCurrDst(11355)
updateCurrDst(11396)
updateCurrDst(11428)
updateCurrDst(11525)
updateCurrDst(11542)
updateCurrDst(11589)
updateCurrDst(11604)
updateCurrDst(11654)
updateCurrDst(11676)
updateCurrDst(11729)
updateCurrDst(11868)
updateCurrDst(11948)
updateCurrDst(12088)
updateCurrDst(12126)
updateCurrDst(12247)
updateCurrDst(12303)
updateCurrDst(12370)
updateCurrDst(12433)
updateCurrDst(12454)
updateCurrDst(12695)
updateCurrDst(12763)
updateCurrDst(12838)
updateCurrDst(12847)
updateCurrDst(12879)
updateCurrDst(12921)
Heartbeat CPU 0 instructions: 10000000 cycles: 3316192 heartbeat IPC: 3.06329 cumulative IPC: 3.01551 (Simulation time: 0 hr 0 min 53 sec) 
updateCurrDst(13066)
updateCurrDst(13196)
updateCurrDst(13564)
updateCurrDst(13664)
updateCurrDst(13789)
updateCurrDst(13816)
updateCurrDst(13882)
updateCurrDst(13955)
updateCurrDst(14206)
updateCurrDst(14406)
updateCurrDst(14559)
updateCurrDst(14604)
updateCurrDst(14665)
updateCurrDst(15026)
updateCurrDst(15096)
updateCurrDst(15209)
updateCurrDst(15321)
updateCurrDst(15336)
updateCurrDst(15351)
updateCurrDst(15354)
updateCurrDst(15361)
Heartbeat CPU 0 instructions: 11000000 cycles: 3639838 heartbeat IPC: 3.0898 cumulative IPC: 3.02211 (Simulation time: 0 hr 1 min 0 sec) 
updateCurrDst(15488)
updateCurrDst(15494)
updateCurrDst(15762)
updateCurrDst(15771)
updateCurrDst(15840)
updateCurrDst(15964)
updateCurrDst(16023)
updateCurrDst(16216)
updateCurrDst(16230)
updateCurrDst(16520)
updateCurrDst(16642)
updateCurrDst(16689)
updateCurrDst(16708)
updateCurrDst(16767)
updateCurrDst(16972)
updateCurrDst(17141)
updateCurrDst(17205)
updateCurrDst(17448)
updateCurrDst(17452)
updateCurrDst(17566)
Heartbeat CPU 0 instructions: 12000000 cycles: 3962956 heartbeat IPC: 3.09484 cumulative IPC: 3.02804 (Simulation time: 0 hr 1 min 7 sec) 
updateCurrDst(18004)
updateCurrDst(18251)
updateCurrDst(18302)
updateCurrDst(18372)
updateCurrDst(18496)
updateCurrDst(18627)
updateCurrDst(18974)
updateCurrDst(19067)
updateCurrDst(19528)
updateCurrDst(19769)
updateCurrDst(19800)
updateCurrDst(20020)
Heartbeat CPU 0 instructions: 13000002 cycles: 4285925 heartbeat IPC: 3.09628 cumulative IPC: 3.03318 (Simulation time: 0 hr 1 min 13 sec) 
updateCurrDst(20118)
updateCurrDst(20201)
updateCurrDst(20253)
updateCurrDst(20318)
updateCurrDst(20522)
updateCurrDst(20660)
updateCurrDst(20695)
updateCurrDst(20714)
updateCurrDst(20746)
updateCurrDst(20830)
updateCurrDst(20896)
updateCurrDst(20899)
updateCurrDst(21129)
updateCurrDst(21562)
updateCurrDst(21773)
updateCurrDst(21877)
updateCurrDst(21917)
updateCurrDst(22212)
updateCurrDst(22409)
updateCurrDst(22432)
updateCurrDst(22467)
updateCurrDst(22488)
updateCurrDst(22573)
Heartbeat CPU 0 instructions: 14000002 cycles: 4611580 heartbeat IPC: 3.07073 cumulative IPC: 3.03584 (Simulation time: 0 hr 1 min 20 sec) 
updateCurrDst(22631)
updateCurrDst(22676)
updateCurrDst(22791)
updateCurrDst(22852)
updateCurrDst(23078)
updateCurrDst(23166)
updateCurrDst(23323)
updateCurrDst(23351)
updateCurrDst(23564)
updateCurrDst(23618)
updateCurrDst(23732)
updateCurrDst(23744)
updateCurrDst(23847)
updateCurrDst(24031)
updateCurrDst(24042)
updateCurrDst(24113)
updateCurrDst(24305)
updateCurrDst(24322)
updateCurrDst(24331)
updateCurrDst(24772)
updateCurrDst(24848)
updateCurrDst(25117)
updateCurrDst(25201)
Heartbeat CPU 0 instructions: 15000000 cycles: 4938090 heartbeat IPC: 3.06269 cumulative IPC: 3.03761 (Simulation time: 0 hr 1 min 28 sec) 
updateCurrDst(25277)
updateCurrDst(25358)
updateCurrDst(25682)
updateCurrDst(25714)
updateCurrDst(25816)
updateCurrDst(25830)
updateCurrDst(25845)
updateCurrDst(25917)
updateCurrDst(25986)
updateCurrDst(26032)
updateCurrDst(26053)
updateCurrDst(26350)
updateCurrDst(26391)
updateCurrDst(26461)
updateCurrDst(26508)
updateCurrDst(26785)
updateCurrDst(26799)
updateCurrDst(27071)
updateCurrDst(27131)
updateCurrDst(27461)
updateCurrDst(27479)
updateCurrDst(27645)
updateCurrDst(27763)
Heartbeat CPU 0 instructions: 16000003 cycles: 5264114 heartbeat IPC: 3.06727 cumulative IPC: 3.03945 (Simulation time: 0 hr 1 min 34 sec) 
updateCurrDst(27819)
updateCurrDst(27839)
updateCurrDst(27865)
updateCurrDst(27953)
updateCurrDst(28015)
updateCurrDst(28030)
updateCurrDst(28041)
updateCurrDst(28101)
updateCurrDst(28119)
updateCurrDst(28136)
updateCurrDst(28190)
updateCurrDst(28325)
updateCurrDst(28328)
updateCurrDst(28518)
updateCurrDst(28635)
updateCurrDst(28951)
updateCurrDst(29142)
updateCurrDst(29279)
updateCurrDst(29568)
updateCurrDst(29713)
updateCurrDst(29718)
updateCurrDst(29738)
updateCurrDst(29767)
updateCurrDst(29838)
updateCurrDst(29850)
updateCurrDst(30047)
updateCurrDst(30197)
updateCurrDst(30293)
updateCurrDst(30386)
updateCurrDst(30432)
Heartbeat CPU 0 instructions: 17000001 cycles: 5592021 heartbeat IPC: 3.04964 cumulative IPC: 3.04005 (Simulation time: 0 hr 1 min 42 sec) 
updateCurrDst(30625)
updateCurrDst(30721)
updateCurrDst(30754)
updateCurrDst(30866)
updateCurrDst(30891)
updateCurrDst(30950)
updateCurrDst(30977)
updateCurrDst(31087)
updateCurrDst(31116)
updateCurrDst(31184)
updateCurrDst(31240)
updateCurrDst(31278)
updateCurrDst(31309)
updateCurrDst(31427)
updateCurrDst(31563)
updateCurrDst(31645)
updateCurrDst(31883)
updateCurrDst(31894)
updateCurrDst(31995)
updateCurrDst(32004)
updateCurrDst(32096)
updateCurrDst(32209)
updateCurrDst(32259)
updateCurrDst(32261)
updateCurrDst(32411)
updateCurrDst(32588)
updateCurrDst(32623)
updateCurrDst(32639)
updateCurrDst(32655)
updateCurrDst(32781)
updateCurrDst(32894)
updateCurrDst(32993)
updateCurrDst(33004)
updateCurrDst(33219)
Heartbeat CPU 0 instructions: 18000001 cycles: 5919462 heartbeat IPC: 3.05399 cumulative IPC: 3.04082 (Simulation time: 0 hr 1 min 50 sec) 
updateCurrDst(33221)
updateCurrDst(33605)
updateCurrDst(33679)
updateCurrDst(33698)
updateCurrDst(33760)
updateCurrDst(33849)
updateCurrDst(33862)
updateCurrDst(33995)
updateCurrDst(34201)
updateCurrDst(34352)
updateCurrDst(34403)
updateCurrDst(34523)
updateCurrDst(34532)
updateCurrDst(34630)
updateCurrDst(34671)
updateCurrDst(34768)
updateCurrDst(34777)
updateCurrDst(34802)
updateCurrDst(34924)
updateCurrDst(35098)
updateCurrDst(35271)
updateCurrDst(35340)
updateCurrDst(35528)
updateCurrDst(35554)
updateCurrDst(35573)
updateCurrDst(35638)
updateCurrDst(35795)
updateCurrDst(35800)
updateCurrDst(35806)
updateCurrDst(35869)
Heartbeat CPU 0 instructions: 19000001 cycles: 6247879 heartbeat IPC: 3.04491 cumulative IPC: 3.04103 (Simulation time: 0 hr 1 min 58 sec) 
updateCurrDst(36020)
updateCurrDst(36024)
updateCurrDst(36025)
updateCurrDst(36112)
updateCurrDst(36122)
updateCurrDst(36146)
updateCurrDst(36551)
updateCurrDst(36625)
updateCurrDst(36799)
updateCurrDst(36811)
updateCurrDst(36842)
updateCurrDst(36851)
updateCurrDst(36895)
updateCurrDst(36985)
updateCurrDst(37072)
updateCurrDst(37149)
updateCurrDst(37259)
updateCurrDst(37444)
updateCurrDst(37751)
updateCurrDst(37972)
updateCurrDst(37982)
updateCurrDst(38022)
updateCurrDst(38169)
updateCurrDst(38180)
updateCurrDst(38184)
updateCurrDst(38300)
updateCurrDst(38372)
Heartbeat CPU 0 instructions: 20000000 cycles: 6572340 heartbeat IPC: 3.08203 cumulative IPC: 3.04306 (Simulation time: 0 hr 2 min 7 sec) 
updateCurrDst(38618)
updateCurrDst(38657)
updateCurrDst(38754)
updateCurrDst(38879)
updateCurrDst(38970)
updateCurrDst(39028)
updateCurrDst(39040)
updateCurrDst(39090)
updateCurrDst(39206)
updateCurrDst(39470)
updateCurrDst(39555)
updateCurrDst(39772)
updateCurrDst(39872)
updateCurrDst(39911)
updateCurrDst(40018)
updateCurrDst(40049)
updateCurrDst(40062)
updateCurrDst(40124)
updateCurrDst(40192)
updateCurrDst(40226)
updateCurrDst(40236)
updateCurrDst(40391)
updateCurrDst(40404)
updateCurrDst(40440)
updateCurrDst(40498)
updateCurrDst(40584)
Heartbeat CPU 0 instructions: 21000000 cycles: 6897800 heartbeat IPC: 3.07257 cumulative IPC: 3.04445 (Simulation time: 0 hr 2 min 15 sec) 
updateCurrDst(41060)
updateCurrDst(41337)
updateCurrDst(41557)
updateCurrDst(41599)
updateCurrDst(41846)
updateCurrDst(41987)
updateCurrDst(42037)
updateCurrDst(42137)
updateCurrDst(42139)
updateCurrDst(42192)
updateCurrDst(42287)
updateCurrDst(42289)
updateCurrDst(42332)
updateCurrDst(42393)
updateCurrDst(42469)
updateCurrDst(42826)
updateCurrDst(43061)
updateCurrDst(43107)
updateCurrDst(43188)
updateCurrDst(43203)
updateCurrDst(43205)
updateCurrDst(43250)
updateCurrDst(43266)
updateCurrDst(43381)
updateCurrDst(43394)
updateCurrDst(43517)
Heartbeat CPU 0 instructions: 22000000 cycles: 7225555 heartbeat IPC: 3.05106 cumulative IPC: 3.04475 (Simulation time: 0 hr 2 min 23 sec) 
updateCurrDst(43860)
updateCurrDst(43967)
updateCurrDst(43985)
updateCurrDst(44034)
updateCurrDst(44154)
updateCurrDst(44177)
updateCurrDst(44194)
updateCurrDst(44216)
updateCurrDst(44257)
updateCurrDst(44303)
updateCurrDst(44331)
updateCurrDst(44488)
updateCurrDst(44493)
updateCurrDst(44597)
updateCurrDst(44656)
updateCurrDst(44737)
updateCurrDst(45256)
updateCurrDst(45296)
updateCurrDst(45502)
updateCurrDst(45532)
updateCurrDst(45558)
updateCurrDst(45879)
updateCurrDst(45949)
updateCurrDst(45987)
updateCurrDst(46146)
updateCurrDst(46167)
updateCurrDst(46175)
updateCurrDst(46540)
Heartbeat CPU 0 instructions: 23000000 cycles: 7554456 heartbeat IPC: 3.04043 cumulative IPC: 3.04456 (Simulation time: 0 hr 2 min 31 sec) 
updateCurrDst(46604)
updateCurrDst(46659)
updateCurrDst(46692)
updateCurrDst(46810)
updateCurrDst(47017)
updateCurrDst(47073)
updateCurrDst(47077)
updateCurrDst(47148)
updateCurrDst(47201)
updateCurrDst(47310)
updateCurrDst(47351)
updateCurrDst(47368)
updateCurrDst(47451)
updateCurrDst(47588)
updateCurrDst(47656)
updateCurrDst(47850)
updateCurrDst(47866)
updateCurrDst(47963)
updateCurrDst(48066)
updateCurrDst(48106)
updateCurrDst(48219)
updateCurrDst(48238)
updateCurrDst(48280)
updateCurrDst(48289)
updateCurrDst(48373)
updateCurrDst(48483)
updateCurrDst(48491)
updateCurrDst(48597)
updateCurrDst(48674)
updateCurrDst(48872)
updateCurrDst(48965)
updateCurrDst(49127)
updateCurrDst(49225)
updateCurrDst(49273)
updateCurrDst(49318)
updateCurrDst(49330)
Heartbeat CPU 0 instructions: 24000002 cycles: 7885910 heartbeat IPC: 3.01702 cumulative IPC: 3.0434 (Simulation time: 0 hr 2 min 39 sec) 
updateCurrDst(49617)
updateCurrDst(49712)
updateCurrDst(50195)
updateCurrDst(50239)
updateCurrDst(50532)
updateCurrDst(50534)
updateCurrDst(50735)
updateCurrDst(50899)
updateCurrDst(50956)
updateCurrDst(51063)
updateCurrDst(51071)
updateCurrDst(51079)
updateCurrDst(51110)
updateCurrDst(51113)
updateCurrDst(51304)
updateCurrDst(51345)
updateCurrDst(51420)
updateCurrDst(51615)
updateCurrDst(51641)
updateCurrDst(51805)
updateCurrDst(51998)
updateCurrDst(52037)
updateCurrDst(52047)
updateCurrDst(52074)
updateCurrDst(52100)
updateCurrDst(52342)
updateCurrDst(52368)
updateCurrDst(52404)
Heartbeat CPU 0 instructions: 25000001 cycles: 8214902 heartbeat IPC: 3.03958 cumulative IPC: 3.04325 (Simulation time: 0 hr 2 min 47 sec) 
updateCurrDst(52447)
updateCurrDst(52478)
updateCurrDst(52622)
updateCurrDst(52628)
updateCurrDst(52774)
updateCurrDst(52947)
updateCurrDst(53176)
updateCurrDst(53238)
updateCurrDst(53274)
updateCurrDst(53394)
updateCurrDst(53461)
updateCurrDst(53487)
updateCurrDst(53539)
updateCurrDst(53611)
updateCurrDst(53635)
updateCurrDst(53809)
updateCurrDst(53830)
updateCurrDst(53881)
updateCurrDst(53925)
updateCurrDst(53997)
updateCurrDst(54036)
updateCurrDst(54113)
updateCurrDst(54284)
updateCurrDst(54352)
updateCurrDst(54587)
Heartbeat CPU 0 instructions: 26000000 cycles: 8536154 heartbeat IPC: 3.11282 cumulative IPC: 3.04587 (Simulation time: 0 hr 2 min 54 sec) 
updateCurrDst(54654)
updateCurrDst(54725)
updateCurrDst(54784)
updateCurrDst(54828)
updateCurrDst(54927)
updateCurrDst(55007)
updateCurrDst(55049)
updateCurrDst(55184)
updateCurrDst(55255)
updateCurrDst(55379)
updateCurrDst(55397)
updateCurrDst(55453)
updateCurrDst(55463)
updateCurrDst(55512)
updateCurrDst(55628)
updateCurrDst(55735)
updateCurrDst(55928)
updateCurrDst(56020)
updateCurrDst(56166)
updateCurrDst(56187)
updateCurrDst(56244)
updateCurrDst(56255)
updateCurrDst(56308)
updateCurrDst(56349)
updateCurrDst(56475)
updateCurrDst(56684)
updateCurrDst(57018)
updateCurrDst(57159)
Heartbeat CPU 0 instructions: 27000002 cycles: 8862006 heartbeat IPC: 3.06888 cumulative IPC: 3.04671 (Simulation time: 0 hr 3 min 2 sec) 
updateCurrDst(57426)
updateCurrDst(57459)
updateCurrDst(57742)
updateCurrDst(57804)
updateCurrDst(57919)
updateCurrDst(57921)
updateCurrDst(57952)
updateCurrDst(57980)
updateCurrDst(57988)
updateCurrDst(58134)
updateCurrDst(58288)
updateCurrDst(58396)
updateCurrDst(58469)
updateCurrDst(58542)
updateCurrDst(58593)
updateCurrDst(58623)
updateCurrDst(58674)
updateCurrDst(58683)
updateCurrDst(58772)
updateCurrDst(58811)
updateCurrDst(58983)
updateCurrDst(59019)
updateCurrDst(59057)
updateCurrDst(59082)
updateCurrDst(59156)
updateCurrDst(59399)
updateCurrDst(59438)
updateCurrDst(59456)
updateCurrDst(59577)
updateCurrDst(59580)
updateCurrDst(59591)
updateCurrDst(59611)
updateCurrDst(59672)
updateCurrDst(59691)
Heartbeat CPU 0 instructions: 28000001 cycles: 9188368 heartbeat IPC: 3.06408 cumulative IPC: 3.04733 (Simulation time: 0 hr 3 min 10 sec) 
updateCurrDst(60040)
updateCurrDst(60070)
updateCurrDst(60193)
updateCurrDst(60425)
updateCurrDst(60467)
updateCurrDst(60623)
updateCurrDst(60709)
updateCurrDst(60968)
updateCurrDst(60978)
updateCurrDst(60987)
updateCurrDst(61218)
updateCurrDst(61308)
updateCurrDst(61424)
updateCurrDst(61464)
updateCurrDst(61596)
updateCurrDst(61642)
updateCurrDst(61693)
updateCurrDst(61973)
updateCurrDst(61983)
updateCurrDst(62165)
updateCurrDst(62340)
updateCurrDst(62356)
updateCurrDst(62447)
updateCurrDst(62460)
updateCurrDst(62536)
Heartbeat CPU 0 instructions: 29000000 cycles: 9516871 heartbeat IPC: 3.04411 cumulative IPC: 3.04722 (Simulation time: 0 hr 3 min 18 sec) 
updateCurrDst(62562)
updateCurrDst(62618)
updateCurrDst(62961)
updateCurrDst(63015)
updateCurrDst(63146)
updateCurrDst(63315)
updateCurrDst(63341)
updateCurrDst(63399)
updateCurrDst(63480)
updateCurrDst(63612)
updateCurrDst(63644)
updateCurrDst(63656)
updateCurrDst(63750)
updateCurrDst(63817)
updateCurrDst(63897)
updateCurrDst(63904)
updateCurrDst(63928)
updateCurrDst(64006)
updateCurrDst(64073)
updateCurrDst(64201)
updateCurrDst(64239)
updateCurrDst(64251)
updateCurrDst(64273)
updateCurrDst(64357)
updateCurrDst(64359)
updateCurrDst(64378)
updateCurrDst(64386)
updateCurrDst(64454)
updateCurrDst(64492)
updateCurrDst(64694)
updateCurrDst(64795)
updateCurrDst(65308)
Heartbeat CPU 0 instructions: 30000002 cycles: 9845362 heartbeat IPC: 3.04423 cumulative IPC: 3.04712 (Simulation time: 0 hr 3 min 25 sec) 
updateCurrDst(65422)
updateCurrDst(65479)
updateCurrDst(65668)
updateCurrDst(65682)
updateCurrDst(65752)
updateCurrDst(65993)
updateCurrDst(66000)
updateCurrDst(66101)
updateCurrDst(66222)
updateCurrDst(66313)
updateCurrDst(66391)
updateCurrDst(66396)
updateCurrDst(66665)
updateCurrDst(66723)
updateCurrDst(66902)
updateCurrDst(67270)
updateCurrDst(67272)
updateCurrDst(67405)
updateCurrDst(67439)
updateCurrDst(67448)
updateCurrDst(67512)
updateCurrDst(67703)
Heartbeat CPU 0 instructions: 31000000 cycles: 10170067 heartbeat IPC: 3.07971 cumulative IPC: 3.04816 (Simulation time: 0 hr 3 min 33 sec) 
updateCurrDst(67819)
updateCurrDst(67868)
updateCurrDst(67925)
updateCurrDst(68230)
updateCurrDst(68303)
updateCurrDst(68338)
updateCurrDst(68409)
updateCurrDst(68471)
updateCurrDst(68566)
updateCurrDst(68648)
updateCurrDst(68676)
updateCurrDst(68759)
updateCurrDst(68777)
updateCurrDst(68945)
updateCurrDst(69065)
updateCurrDst(69303)
updateCurrDst(69319)
updateCurrDst(69336)
updateCurrDst(69438)
updateCurrDst(69579)
updateCurrDst(69619)
updateCurrDst(69683)
updateCurrDst(69711)
updateCurrDst(69817)
updateCurrDst(69901)
updateCurrDst(69907)
updateCurrDst(70002)
updateCurrDst(70044)
updateCurrDst(70099)
updateCurrDst(70113)
updateCurrDst(70199)
Heartbeat CPU 0 instructions: 32000001 cycles: 10494444 heartbeat IPC: 3.08284 cumulative IPC: 3.04923 (Simulation time: 0 hr 3 min 39 sec) 
updateCurrDst(70280)
updateCurrDst(70422)
updateCurrDst(70586)
updateCurrDst(71313)
updateCurrDst(71532)
updateCurrDst(71650)
updateCurrDst(71696)
updateCurrDst(71861)
updateCurrDst(71941)
updateCurrDst(72128)
updateCurrDst(72158)
updateCurrDst(72388)
updateCurrDst(72396)
updateCurrDst(72439)
updateCurrDst(72453)
updateCurrDst(72576)
updateCurrDst(72641)
updateCurrDst(72702)
updateCurrDst(72740)
updateCurrDst(72791)
updateCurrDst(72876)
Heartbeat CPU 0 instructions: 33000000 cycles: 10822025 heartbeat IPC: 3.05268 cumulative IPC: 3.04934 (Simulation time: 0 hr 3 min 47 sec) 
updateCurrDst(72994)
updateCurrDst(73080)
updateCurrDst(73130)
updateCurrDst(73134)
updateCurrDst(73201)
updateCurrDst(73218)
updateCurrDst(73291)
updateCurrDst(73486)
updateCurrDst(73499)
updateCurrDst(73756)
updateCurrDst(73854)
updateCurrDst(73967)
updateCurrDst(73982)
updateCurrDst(74061)
updateCurrDst(74086)
updateCurrDst(74296)
updateCurrDst(74360)
updateCurrDst(74410)
updateCurrDst(74561)
updateCurrDst(74616)
updateCurrDst(74619)
updateCurrDst(74632)
updateCurrDst(74797)
updateCurrDst(74900)
updateCurrDst(75054)
updateCurrDst(75221)
updateCurrDst(75224)
updateCurrDst(75401)
updateCurrDst(75420)
updateCurrDst(75512)
updateCurrDst(75542)
Heartbeat CPU 0 instructions: 34000000 cycles: 11150075 heartbeat IPC: 3.04832 cumulative IPC: 3.04931 (Simulation time: 0 hr 3 min 56 sec) 
updateCurrDst(75938)
updateCurrDst(75966)
updateCurrDst(76148)
updateCurrDst(76269)
updateCurrDst(76342)
updateCurrDst(76660)
updateCurrDst(76782)
updateCurrDst(76812)
updateCurrDst(76884)
updateCurrDst(77108)
updateCurrDst(77210)
updateCurrDst(77220)
updateCurrDst(77264)
updateCurrDst(77326)
updateCurrDst(77362)
updateCurrDst(77385)
updateCurrDst(77405)
updateCurrDst(77462)
updateCurrDst(77681)
updateCurrDst(77695)
updateCurrDst(77716)
updateCurrDst(77772)
updateCurrDst(77858)
updateCurrDst(78114)
updateCurrDst(78176)
updateCurrDst(78243)
Heartbeat CPU 0 instructions: 35000000 cycles: 11478781 heartbeat IPC: 3.04223 cumulative IPC: 3.0491 (Simulation time: 0 hr 4 min 4 sec) 
updateCurrDst(78513)
updateCurrDst(78624)
updateCurrDst(78643)
updateCurrDst(78667)
updateCurrDst(78746)
updateCurrDst(78852)
updateCurrDst(78921)
updateCurrDst(78936)
updateCurrDst(79046)
updateCurrDst(79075)
updateCurrDst(79156)
updateCurrDst(79315)
updateCurrDst(79610)
updateCurrDst(79663)
updateCurrDst(79717)
updateCurrDst(79729)
updateCurrDst(79882)
updateCurrDst(79907)
updateCurrDst(79931)
updateCurrDst(80152)
updateCurrDst(80308)
updateCurrDst(80375)
updateCurrDst(80431)
updateCurrDst(80500)
updateCurrDst(80674)
updateCurrDst(80680)
updateCurrDst(80810)
Heartbeat CPU 0 instructions: 36000000 cycles: 11801721 heartbeat IPC: 3.09655 cumulative IPC: 3.0504 (Simulation time: 0 hr 4 min 12 sec) 
updateCurrDst(81031)
updateCurrDst(81067)
updateCurrDst(81160)
updateCurrDst(81191)
updateCurrDst(81260)
updateCurrDst(81295)
updateCurrDst(81305)
updateCurrDst(81391)
updateCurrDst(81456)
updateCurrDst(81475)
updateCurrDst(81505)
updateCurrDst(81514)
updateCurrDst(81546)
updateCurrDst(81888)
updateCurrDst(81895)
updateCurrDst(81908)
updateCurrDst(82268)
updateCurrDst(82336)
updateCurrDst(82465)
updateCurrDst(82586)
updateCurrDst(82701)
updateCurrDst(82755)
updateCurrDst(82798)
updateCurrDst(82873)
updateCurrDst(83187)
updateCurrDst(83264)
updateCurrDst(83317)
updateCurrDst(83326)
updateCurrDst(83330)
updateCurrDst(83399)
Heartbeat CPU 0 instructions: 37000002 cycles: 12128646 heartbeat IPC: 3.05881 cumulative IPC: 3.05063 (Simulation time: 0 hr 4 min 19 sec) 
updateCurrDst(83646)
updateCurrDst(83661)
updateCurrDst(83676)
updateCurrDst(83736)
updateCurrDst(83961)
updateCurrDst(84002)
updateCurrDst(84077)
updateCurrDst(84106)
updateCurrDst(84111)
updateCurrDst(84189)
updateCurrDst(84305)
updateCurrDst(84340)
updateCurrDst(84409)
updateCurrDst(84507)
updateCurrDst(84568)
updateCurrDst(84588)
updateCurrDst(84600)
updateCurrDst(84635)
updateCurrDst(84712)
updateCurrDst(84807)
updateCurrDst(84828)
updateCurrDst(84980)
updateCurrDst(85145)
updateCurrDst(85230)
updateCurrDst(85234)
updateCurrDst(85334)
updateCurrDst(85461)
updateCurrDst(85503)
updateCurrDst(85679)
updateCurrDst(85971)
updateCurrDst(86142)
Heartbeat CPU 0 instructions: 38000000 cycles: 12456459 heartbeat IPC: 3.05051 cumulative IPC: 3.05063 (Simulation time: 0 hr 4 min 27 sec) 
updateCurrDst(86344)
updateCurrDst(86360)
updateCurrDst(86614)
updateCurrDst(86691)
updateCurrDst(86895)
updateCurrDst(87175)
updateCurrDst(87253)
updateCurrDst(87301)
updateCurrDst(87491)
updateCurrDst(87747)
updateCurrDst(87840)
updateCurrDst(87982)
updateCurrDst(88044)
updateCurrDst(88048)
updateCurrDst(88051)
updateCurrDst(88097)
updateCurrDst(88148)
updateCurrDst(88190)
updateCurrDst(88218)
updateCurrDst(88472)
updateCurrDst(88580)
Heartbeat CPU 0 instructions: 39000000 cycles: 12781087 heartbeat IPC: 3.08045 cumulative IPC: 3.05138 (Simulation time: 0 hr 4 min 34 sec) 
updateCurrDst(88706)
updateCurrDst(88780)
updateCurrDst(88854)
updateCurrDst(88914)
updateCurrDst(89001)
updateCurrDst(89103)
updateCurrDst(89397)
updateCurrDst(89477)
updateCurrDst(89513)
updateCurrDst(89531)
updateCurrDst(89713)
updateCurrDst(89806)
updateCurrDst(89890)
updateCurrDst(89985)
updateCurrDst(90053)
updateCurrDst(90118)
updateCurrDst(90158)
updateCurrDst(90221)
updateCurrDst(90238)
updateCurrDst(90380)
updateCurrDst(90437)
updateCurrDst(90453)
updateCurrDst(90662)
updateCurrDst(91017)
updateCurrDst(91061)
updateCurrDst(91086)
updateCurrDst(91104)
updateCurrDst(91135)
updateCurrDst(91190)
updateCurrDst(91217)
updateCurrDst(91253)
updateCurrDst(91528)
Heartbeat CPU 0 instructions: 40000003 cycles: 13112575 heartbeat IPC: 3.01671 cumulative IPC: 3.05051 (Simulation time: 0 hr 4 min 44 sec) 
updateCurrDst(91776)
updateCurrDst(91778)
updateCurrDst(91867)
updateCurrDst(91936)
updateCurrDst(92015)
updateCurrDst(92384)
updateCurrDst(92442)
updateCurrDst(92536)
updateCurrDst(92638)
updateCurrDst(92690)
updateCurrDst(92755)
updateCurrDst(92765)
updateCurrDst(92775)
updateCurrDst(92783)
updateCurrDst(93285)
updateCurrDst(93353)
updateCurrDst(93402)
updateCurrDst(93499)
updateCurrDst(93786)
updateCurrDst(93796)
updateCurrDst(93876)
updateCurrDst(93902)
updateCurrDst(93983)
updateCurrDst(94010)
updateCurrDst(94016)
updateCurrDst(94158)
updateCurrDst(94382)
updateCurrDst(94404)
updateCurrDst(94410)
updateCurrDst(94414)
updateCurrDst(94488)
updateCurrDst(94498)
updateCurrDst(94523)
updateCurrDst(94618)
Heartbeat CPU 0 instructions: 41000003 cycles: 13442503 heartbeat IPC: 3.03096 cumulative IPC: 3.05003 (Simulation time: 0 hr 4 min 50 sec) 
updateCurrDst(94843)
updateCurrDst(94899)
updateCurrDst(95006)
updateCurrDst(95074)
updateCurrDst(95250)
updateCurrDst(95402)
updateCurrDst(95513)
updateCurrDst(95524)
updateCurrDst(95528)
updateCurrDst(95878)
updateCurrDst(96014)
updateCurrDst(96058)
updateCurrDst(96161)
updateCurrDst(96170)
updateCurrDst(96312)
updateCurrDst(96540)
updateCurrDst(96578)
updateCurrDst(96671)
updateCurrDst(96707)
updateCurrDst(96715)
updateCurrDst(96922)
updateCurrDst(97162)
Heartbeat CPU 0 instructions: 42000000 cycles: 13768047 heartbeat IPC: 3.07177 cumulative IPC: 3.05054 (Simulation time: 0 hr 4 min 58 sec) 
updateCurrDst(97208)
updateCurrDst(97316)
updateCurrDst(97323)
updateCurrDst(97327)
updateCurrDst(97451)
updateCurrDst(97593)
updateCurrDst(97673)
updateCurrDst(97699)
updateCurrDst(97804)
updateCurrDst(97830)
updateCurrDst(97915)
updateCurrDst(97925)
updateCurrDst(98037)
updateCurrDst(98045)
updateCurrDst(98100)
updateCurrDst(98213)
updateCurrDst(98265)
updateCurrDst(98426)
updateCurrDst(98614)
updateCurrDst(98629)
updateCurrDst(98762)
updateCurrDst(98853)
updateCurrDst(98905)
updateCurrDst(98907)
updateCurrDst(99178)
updateCurrDst(99294)
updateCurrDst(99400)
updateCurrDst(99478)
updateCurrDst(99541)
updateCurrDst(99609)
updateCurrDst(99639)
updateCurrDst(99748)
updateCurrDst(99753)
updateCurrDst(99776)
updateCurrDst(99783)
Heartbeat CPU 0 instructions: 43000000 cycles: 14094743 heartbeat IPC: 3.06095 cumulative IPC: 3.05078 (Simulation time: 0 hr 5 min 6 sec) 
updateCurrDst(99834)
updateCurrDst(99920)
updateCurrDst(100047)
updateCurrDst(100097)
updateCurrDst(100295)
updateCurrDst(100403)
updateCurrDst(100421)
updateCurrDst(100495)
updateCurrDst(100540)
updateCurrDst(100631)
updateCurrDst(100678)
updateCurrDst(100842)
updateCurrDst(100988)
updateCurrDst(101344)
updateCurrDst(101663)
updateCurrDst(101763)
updateCurrDst(101865)
updateCurrDst(101969)
updateCurrDst(102089)
updateCurrDst(102100)
updateCurrDst(102171)
updateCurrDst(102253)
updateCurrDst(102287)
updateCurrDst(102299)
updateCurrDst(102309)
updateCurrDst(102344)
updateCurrDst(102395)
updateCurrDst(102439)
Heartbeat CPU 0 instructions: 44000000 cycles: 14421630 heartbeat IPC: 3.05916 cumulative IPC: 3.05097 (Simulation time: 0 hr 5 min 15 sec) 
updateCurrDst(102743)
updateCurrDst(102810)
updateCurrDst(102935)
updateCurrDst(102976)
updateCurrDst(103357)
updateCurrDst(103386)
updateCurrDst(103674)
updateCurrDst(103675)
updateCurrDst(103973)
updateCurrDst(104041)
updateCurrDst(104275)
updateCurrDst(104345)
updateCurrDst(104348)
updateCurrDst(104403)
updateCurrDst(104448)
updateCurrDst(104517)
updateCurrDst(104573)
updateCurrDst(104840)
Heartbeat CPU 0 instructions: 45000001 cycles: 14744826 heartbeat IPC: 3.0941 cumulative IPC: 3.05192 (Simulation time: 0 hr 5 min 24 sec) 
updateCurrDst(104890)
updateCurrDst(104939)
updateCurrDst(104944)
updateCurrDst(105069)
updateCurrDst(105071)
updateCurrDst(105191)
updateCurrDst(105439)
updateCurrDst(105467)
updateCurrDst(105618)
updateCurrDst(105644)
updateCurrDst(105735)
updateCurrDst(105877)
updateCurrDst(105889)
updateCurrDst(105972)
updateCurrDst(106118)
updateCurrDst(106166)
updateCurrDst(106225)
updateCurrDst(106386)
updateCurrDst(106524)
updateCurrDst(106736)
updateCurrDst(106803)
updateCurrDst(106942)
updateCurrDst(107337)
updateCurrDst(107482)
updateCurrDst(107495)
updateCurrDst(107530)
updateCurrDst(107542)
Heartbeat CPU 0 instructions: 46000000 cycles: 15073232 heartbeat IPC: 3.04501 cumulative IPC: 3.05177 (Simulation time: 0 hr 5 min 32 sec) 
updateCurrDst(107730)
updateCurrDst(107817)
updateCurrDst(107887)
updateCurrDst(107914)
updateCurrDst(108255)
updateCurrDst(108284)
updateCurrDst(108287)
updateCurrDst(108502)
updateCurrDst(108544)
updateCurrDst(108610)
updateCurrDst(108843)
updateCurrDst(108900)
updateCurrDst(109031)
updateCurrDst(109403)
updateCurrDst(109413)
updateCurrDst(109447)
updateCurrDst(109473)
updateCurrDst(109488)
updateCurrDst(109501)
updateCurrDst(109635)
updateCurrDst(109755)
updateCurrDst(109873)
updateCurrDst(110027)
updateCurrDst(110033)
updateCurrDst(110200)
updateCurrDst(110313)
updateCurrDst(110362)
updateCurrDst(110390)
updateCurrDst(110434)
Heartbeat CPU 0 instructions: 47000003 cycles: 15402127 heartbeat IPC: 3.04049 cumulative IPC: 3.05153 (Simulation time: 0 hr 5 min 39 sec) 
updateCurrDst(110864)
updateCurrDst(110876)
updateCurrDst(111154)
updateCurrDst(111318)
updateCurrDst(111335)
updateCurrDst(111647)
updateCurrDst(111752)
updateCurrDst(111794)
updateCurrDst(111809)
updateCurrDst(111915)
updateCurrDst(112069)
updateCurrDst(112070)
updateCurrDst(112118)
updateCurrDst(112183)
updateCurrDst(112290)
updateCurrDst(112334)
updateCurrDst(112565)
updateCurrDst(112723)
updateCurrDst(112737)
updateCurrDst(112794)
updateCurrDst(112997)
updateCurrDst(113010)
updateCurrDst(113189)
updateCurrDst(113318)
Heartbeat CPU 0 instructions: 48000002 cycles: 15731610 heartbeat IPC: 3.03505 cumulative IPC: 3.05118 (Simulation time: 0 hr 5 min 46 sec) 
updateCurrDst(113640)
updateCurrDst(113669)
updateCurrDst(113719)
updateCurrDst(113757)
updateCurrDst(113924)
updateCurrDst(114031)
updateCurrDst(114053)
updateCurrDst(114102)
updateCurrDst(114165)
updateCurrDst(114273)
updateCurrDst(114468)
updateCurrDst(114621)
updateCurrDst(114809)
updateCurrDst(114892)
updateCurrDst(115020)
updateCurrDst(115118)
updateCurrDst(115195)
updateCurrDst(115210)
updateCurrDst(115300)
updateCurrDst(115471)
updateCurrDst(115474)
updateCurrDst(115684)
Heartbeat CPU 0 instructions: 49000001 cycles: 16057515 heartbeat IPC: 3.06838 cumulative IPC: 3.05153 (Simulation time: 0 hr 5 min 54 sec) 
updateCurrDst(115994)
updateCurrDst(116090)
updateCurrDst(116328)
updateCurrDst(116353)
updateCurrDst(116391)
updateCurrDst(116545)
updateCurrDst(116584)
updateCurrDst(116729)
updateCurrDst(116794)
updateCurrDst(116811)
updateCurrDst(116919)
updateCurrDst(116933)
updateCurrDst(116947)
updateCurrDst(117030)
updateCurrDst(117105)
updateCurrDst(117123)
updateCurrDst(117233)
updateCurrDst(117240)
updateCurrDst(117273)
updateCurrDst(117344)
updateCurrDst(117480)
updateCurrDst(117528)
updateCurrDst(117543)
updateCurrDst(117711)
updateCurrDst(117714)
updateCurrDst(117736)
updateCurrDst(117820)
updateCurrDst(117822)
updateCurrDst(117843)
updateCurrDst(117925)
updateCurrDst(118033)
updateCurrDst(118216)
updateCurrDst(118243)
updateCurrDst(118314)
updateCurrDst(118442)
updateCurrDst(118601)
Heartbeat CPU 0 instructions: 50000002 cycles: 16384935 heartbeat IPC: 3.05418 cumulative IPC: 3.05158 (Simulation time: 0 hr 6 min 2 sec) 

Warmup complete CPU 0 instructions: 50000002 cycles: 16384935 (Simulation time: 0 hr 6 min 2 sec) 

updateCurrDst(118640)
updateCurrDst(118740)
updateCurrDst(118817)
updateCurrDst(118934)
updateCurrDst(118949)
updateCurrDst(119198)
updateCurrDst(119210)
updateCurrDst(119269)
updateCurrDst(119532)
updateCurrDst(119563)
updateCurrDst(119637)
updateCurrDst(120012)
updateCurrDst(120110)
updateCurrDst(120152)
updateCurrDst(120345)
updateCurrDst(120363)
updateCurrDst(120678)
updateCurrDst(120691)
updateCurrDst(120702)
updateCurrDst(120833)
updateCurrDst(120918)
Heartbeat CPU 0 instructions: 51000000 cycles: 19373141 heartbeat IPC: 0.334648 cumulative IPC: 0.334648 (Simulation time: 0 hr 6 min 10 sec) 
updateCurrDst(121279)
updateCurrDst(121553)
updateCurrDst(121602)
updateCurrDst(121904)
updateCurrDst(122005)
updateCurrDst(122102)
updateCurrDst(122137)
updateCurrDst(122234)
updateCurrDst(122588)
updateCurrDst(122701)
updateCurrDst(122724)
updateCurrDst(123058)
updateCurrDst(123112)
updateCurrDst(123277)
updateCurrDst(123481)
updateCurrDst(123513)
updateCurrDst(123657)
Heartbeat CPU 0 instructions: 52000002 cycles: 22351693 heartbeat IPC: 0.335734 cumulative IPC: 0.33519 (Simulation time: 0 hr 6 min 19 sec) 
updateCurrDst(123710)
updateCurrDst(123916)
updateCurrDst(123927)
updateCurrDst(123953)
updateCurrDst(123979)
updateCurrDst(124014)
updateCurrDst(124023)
updateCurrDst(124178)
updateCurrDst(124254)
updateCurrDst(124265)
updateCurrDst(124703)
updateCurrDst(124791)
updateCurrDst(124823)
updateCurrDst(124830)
updateCurrDst(124950)
updateCurrDst(125105)
updateCurrDst(125237)
updateCurrDst(125444)
updateCurrDst(125467)
updateCurrDst(125565)
updateCurrDst(125605)
updateCurrDst(125667)
updateCurrDst(125693)
updateCurrDst(125859)
updateCurrDst(125878)
updateCurrDst(125888)
updateCurrDst(126108)
updateCurrDst(126153)
Heartbeat CPU 0 instructions: 53000000 cycles: 25319142 heartbeat IPC: 0.336989 cumulative IPC: 0.335788 (Simulation time: 0 hr 6 min 27 sec) 
updateCurrDst(126329)
updateCurrDst(126352)
updateCurrDst(126359)
updateCurrDst(126488)
updateCurrDst(126507)
updateCurrDst(126527)
updateCurrDst(126615)
updateCurrDst(126759)
updateCurrDst(126837)
updateCurrDst(126891)
updateCurrDst(126961)
updateCurrDst(126991)
updateCurrDst(127018)
updateCurrDst(127130)
updateCurrDst(127232)
updateCurrDst(127246)
updateCurrDst(127377)
updateCurrDst(127395)
updateCurrDst(127409)
updateCurrDst(127464)
updateCurrDst(127495)
updateCurrDst(127636)
updateCurrDst(127701)
updateCurrDst(127804)
updateCurrDst(127828)
updateCurrDst(127918)
updateCurrDst(128054)
updateCurrDst(128098)
updateCurrDst(128167)
updateCurrDst(128183)
updateCurrDst(128220)
updateCurrDst(128398)
updateCurrDst(128556)
updateCurrDst(128562)
updateCurrDst(128682)
updateCurrDst(128684)
updateCurrDst(128806)
Heartbeat CPU 0 instructions: 54000000 cycles: 28280805 heartbeat IPC: 0.337648 cumulative IPC: 0.336251 (Simulation time: 0 hr 6 min 36 sec) 
updateCurrDst(129067)
updateCurrDst(129084)
updateCurrDst(129117)
updateCurrDst(129259)
updateCurrDst(129298)
updateCurrDst(129368)
updateCurrDst(129409)
updateCurrDst(129427)
updateCurrDst(129494)
updateCurrDst(129552)
updateCurrDst(129796)
updateCurrDst(129802)
updateCurrDst(130051)
updateCurrDst(130065)
updateCurrDst(130163)
updateCurrDst(130176)
updateCurrDst(130217)
updateCurrDst(130227)
updateCurrDst(130328)
updateCurrDst(130615)
updateCurrDst(130768)
updateCurrDst(130862)
updateCurrDst(131046)
updateCurrDst(131098)
updateCurrDst(131180)
updateCurrDst(131297)
Heartbeat CPU 0 instructions: 55000000 cycles: 31264281 heartbeat IPC: 0.33518 cumulative IPC: 0.336036 (Simulation time: 0 hr 6 min 45 sec) 
updateCurrDst(131618)
updateCurrDst(131638)
updateCurrDst(131742)
updateCurrDst(131962)
updateCurrDst(132024)
updateCurrDst(132164)
updateCurrDst(132231)
updateCurrDst(132235)
updateCurrDst(132351)
updateCurrDst(132747)
updateCurrDst(132798)
updateCurrDst(132958)
updateCurrDst(132962)
updateCurrDst(132966)
updateCurrDst(132989)
updateCurrDst(132996)
updateCurrDst(133010)
updateCurrDst(133036)
updateCurrDst(133059)
updateCurrDst(133189)
updateCurrDst(133229)
updateCurrDst(133272)
updateCurrDst(133328)
updateCurrDst(133391)
updateCurrDst(133473)
updateCurrDst(133480)
updateCurrDst(133715)
updateCurrDst(133720)
updateCurrDst(133730)
updateCurrDst(133738)
updateCurrDst(133766)
updateCurrDst(133789)
updateCurrDst(133974)
updateCurrDst(134041)
updateCurrDst(134112)
Heartbeat CPU 0 instructions: 56000001 cycles: 34228924 heartbeat IPC: 0.337309 cumulative IPC: 0.336248 (Simulation time: 0 hr 6 min 54 sec) 
updateCurrDst(134272)
updateCurrDst(134286)
updateCurrDst(134345)
updateCurrDst(134523)
updateCurrDst(134570)
updateCurrDst(134744)
updateCurrDst(134807)
updateCurrDst(134830)
updateCurrDst(134916)
updateCurrDst(135126)
updateCurrDst(135166)
updateCurrDst(135202)
updateCurrDst(135295)
updateCurrDst(135385)
updateCurrDst(135404)
updateCurrDst(135520)
updateCurrDst(135762)
updateCurrDst(135835)
updateCurrDst(135860)
updateCurrDst(135928)
updateCurrDst(136049)
updateCurrDst(136268)
updateCurrDst(136307)
updateCurrDst(136344)
updateCurrDst(136521)
updateCurrDst(136525)
updateCurrDst(136557)
updateCurrDst(136580)
Heartbeat CPU 0 instructions: 57000002 cycles: 37218566 heartbeat IPC: 0.334489 cumulative IPC: 0.335995 (Simulation time: 0 hr 7 min 2 sec) 
updateCurrDst(136618)
updateCurrDst(136654)
updateCurrDst(136691)
updateCurrDst(136971)
updateCurrDst(137128)
updateCurrDst(137142)
updateCurrDst(137378)
updateCurrDst(137405)
updateCurrDst(137482)
updateCurrDst(137812)
updateCurrDst(138149)
updateCurrDst(138515)
updateCurrDst(138666)
updateCurrDst(138670)
updateCurrDst(138684)
updateCurrDst(138804)
updateCurrDst(138806)
updateCurrDst(138817)
updateCurrDst(138824)
updateCurrDst(138904)
updateCurrDst(139077)
updateCurrDst(139112)
updateCurrDst(139377)
Heartbeat CPU 0 instructions: 58000001 cycles: 40191698 heartbeat IPC: 0.336345 cumulative IPC: 0.336039 (Simulation time: 0 hr 7 min 10 sec) 
updateCurrDst(139477)
updateCurrDst(139615)
updateCurrDst(139617)
updateCurrDst(139666)
updateCurrDst(139678)
updateCurrDst(139682)
updateCurrDst(139746)
updateCurrDst(139837)
updateCurrDst(139905)
updateCurrDst(140007)
updateCurrDst(140061)
updateCurrDst(140093)
updateCurrDst(140244)
updateCurrDst(140265)
updateCurrDst(140399)
updateCurrDst(140409)
updateCurrDst(140478)
updateCurrDst(140620)
updateCurrDst(140720)
updateCurrDst(140768)
updateCurrDst(140828)
updateCurrDst(141113)
updateCurrDst(141185)
updateCurrDst(141191)
updateCurrDst(141471)
updateCurrDst(141567)
updateCurrDst(141624)
updateCurrDst(141745)
updateCurrDst(141827)
updateCurrDst(141883)
updateCurrDst(142109)
updateCurrDst(142147)
Heartbeat CPU 0 instructions: 59000001 cycles: 43167862 heartbeat IPC: 0.336003 cumulative IPC: 0.336035 (Simulation time: 0 hr 7 min 18 sec) 
updateCurrDst(142389)
updateCurrDst(142405)
updateCurrDst(142406)
updateCurrDst(142451)
updateCurrDst(142470)
updateCurrDst(142513)
updateCurrDst(142532)
updateCurrDst(142623)
updateCurrDst(142842)
updateCurrDst(143061)
updateCurrDst(143126)
updateCurrDst(143177)
updateCurrDst(143247)
updateCurrDst(143430)
updateCurrDst(143448)
updateCurrDst(143464)
updateCurrDst(143733)
updateCurrDst(143829)
updateCurrDst(143860)
updateCurrDst(143863)
updateCurrDst(144019)
updateCurrDst(144126)
updateCurrDst(144232)
updateCurrDst(144331)
updateCurrDst(144490)
updateCurrDst(144529)
updateCurrDst(144687)
updateCurrDst(144745)
updateCurrDst(144774)
updateCurrDst(144821)
updateCurrDst(144822)
Heartbeat CPU 0 instructions: 60000001 cycles: 46158408 heartbeat IPC: 0.334387 cumulative IPC: 0.335869 (Simulation time: 0 hr 7 min 27 sec) 
updateCurrDst(144883)
updateCurrDst(144972)
updateCurrDst(145029)
updateCurrDst(145182)
updateCurrDst(145242)
updateCurrDst(145290)
updateCurrDst(145291)
updateCurrDst(145335)
updateCurrDst(145353)
updateCurrDst(145491)
updateCurrDst(145509)
updateCurrDst(145837)
updateCurrDst(145901)
updateCurrDst(146045)
updateCurrDst(146155)
updateCurrDst(146306)
updateCurrDst(146441)
updateCurrDst(146449)
updateCurrDst(146450)
updateCurrDst(146673)
updateCurrDst(146750)
updateCurrDst(146811)
updateCurrDst(146905)
updateCurrDst(146912)
updateCurrDst(147013)
updateCurrDst(147189)
updateCurrDst(147370)
updateCurrDst(147407)
updateCurrDst(147624)
Heartbeat CPU 0 instructions: 61000000 cycles: 49100491 heartbeat IPC: 0.339895 cumulative IPC: 0.336231 (Simulation time: 0 hr 7 min 36 sec) 
updateCurrDst(147842)
updateCurrDst(147916)
updateCurrDst(147932)
updateCurrDst(148015)
updateCurrDst(148054)
updateCurrDst(148092)
updateCurrDst(148104)
updateCurrDst(148425)
updateCurrDst(148487)
updateCurrDst(148534)
updateCurrDst(148544)
updateCurrDst(148623)
updateCurrDst(148644)
updateCurrDst(148850)
updateCurrDst(148902)
updateCurrDst(149199)
updateCurrDst(149223)
updateCurrDst(149243)
updateCurrDst(149272)
updateCurrDst(149304)
updateCurrDst(149332)
updateCurrDst(149354)
updateCurrDst(149449)
updateCurrDst(149482)
updateCurrDst(149668)
updateCurrDst(149780)
updateCurrDst(149783)
updateCurrDst(150032)
updateCurrDst(150036)
Heartbeat CPU 0 instructions: 62000002 cycles: 52081416 heartbeat IPC: 0.335467 cumulative IPC: 0.336168 (Simulation time: 0 hr 7 min 44 sec) 
updateCurrDst(150453)
updateCurrDst(150594)
updateCurrDst(150615)
updateCurrDst(150726)
updateCurrDst(150840)
updateCurrDst(150943)
updateCurrDst(151180)
updateCurrDst(151270)
updateCurrDst(151545)
updateCurrDst(151569)
updateCurrDst(151608)
updateCurrDst(151639)
updateCurrDst(151685)
updateCurrDst(152079)
updateCurrDst(152157)
updateCurrDst(152191)
updateCurrDst(152231)
updateCurrDst(152244)
updateCurrDst(152336)
updateCurrDst(152414)
updateCurrDst(152420)
updateCurrDst(152496)
updateCurrDst(152644)
updateCurrDst(152791)
updateCurrDst(152843)
updateCurrDst(152857)
updateCurrDst(152865)
updateCurrDst(153026)
Heartbeat CPU 0 instructions: 63000002 cycles: 55057404 heartbeat IPC: 0.336023 cumulative IPC: 0.336156 (Simulation time: 0 hr 7 min 53 sec) 
updateCurrDst(153256)
updateCurrDst(153420)
updateCurrDst(153623)
updateCurrDst(153656)
updateCurrDst(153838)
updateCurrDst(153923)
updateCurrDst(153926)
updateCurrDst(153989)
updateCurrDst(154129)
updateCurrDst(154305)
updateCurrDst(154390)
updateCurrDst(154396)
updateCurrDst(154433)
updateCurrDst(154638)
updateCurrDst(154649)
updateCurrDst(154856)
updateCurrDst(154857)
updateCurrDst(154905)
updateCurrDst(154928)
updateCurrDst(155039)
updateCurrDst(155045)
updateCurrDst(155217)
updateCurrDst(155254)
updateCurrDst(155316)
updateCurrDst(155343)
updateCurrDst(155465)
Heartbeat CPU 0 instructions: 64000000 cycles: 58055009 heartbeat IPC: 0.333599 cumulative IPC: 0.335972 (Simulation time: 0 hr 8 min 1 sec) 
updateCurrDst(155632)
updateCurrDst(155665)
updateCurrDst(155697)
updateCurrDst(155729)
updateCurrDst(155762)
updateCurrDst(155853)
updateCurrDst(155889)
updateCurrDst(156004)
updateCurrDst(156061)
updateCurrDst(156302)
updateCurrDst(156310)
updateCurrDst(156575)
updateCurrDst(156729)
updateCurrDst(156907)
updateCurrDst(157144)
updateCurrDst(157379)
updateCurrDst(157601)
updateCurrDst(157603)
updateCurrDst(157823)
updateCurrDst(157887)
Heartbeat CPU 0 instructions: 65000001 cycles: 61053724 heartbeat IPC: 0.333477 cumulative IPC: 0.335805 (Simulation time: 0 hr 8 min 10 sec) 
updateCurrDst(158022)
updateCurrDst(158278)
updateCurrDst(158493)
updateCurrDst(158608)
updateCurrDst(158624)
updateCurrDst(158682)
updateCurrDst(158692)
updateCurrDst(158731)
updateCurrDst(158759)
updateCurrDst(159045)
updateCurrDst(159144)
updateCurrDst(159221)
updateCurrDst(159290)
updateCurrDst(159467)
updateCurrDst(159615)
updateCurrDst(159880)
updateCurrDst(159908)
updateCurrDst(160218)
updateCurrDst(160251)
updateCurrDst(160300)
updateCurrDst(160301)
updateCurrDst(160336)
updateCurrDst(160450)
updateCurrDst(160475)
Heartbeat CPU 0 instructions: 66000000 cycles: 64025187 heartbeat IPC: 0.336534 cumulative IPC: 0.33585 (Simulation time: 0 hr 8 min 18 sec) 
updateCurrDst(160892)
updateCurrDst(160951)
updateCurrDst(160992)
updateCurrDst(161075)
updateCurrDst(161156)
updateCurrDst(161353)
updateCurrDst(161564)
updateCurrDst(161654)
updateCurrDst(161717)
updateCurrDst(161856)
updateCurrDst(161966)
updateCurrDst(162006)
updateCurrDst(162053)
updateCurrDst(162277)
updateCurrDst(162305)
updateCurrDst(162311)
updateCurrDst(162500)
updateCurrDst(162519)
updateCurrDst(162671)
updateCurrDst(162934)
updateCurrDst(162967)
updateCurrDst(162974)
updateCurrDst(162999)
updateCurrDst(163062)
updateCurrDst(163163)
updateCurrDst(163195)
Heartbeat CPU 0 instructions: 67000000 cycles: 67025333 heartbeat IPC: 0.333317 cumulative IPC: 0.3357 (Simulation time: 0 hr 8 min 26 sec) 
updateCurrDst(163340)
updateCurrDst(163647)
updateCurrDst(164023)
updateCurrDst(164268)
updateCurrDst(164283)
updateCurrDst(164449)
updateCurrDst(164514)
updateCurrDst(164557)
updateCurrDst(164586)
updateCurrDst(164693)
updateCurrDst(164797)
updateCurrDst(164815)
updateCurrDst(164881)
updateCurrDst(165276)
updateCurrDst(165315)
updateCurrDst(165637)
updateCurrDst(165741)
updateCurrDst(165856)
updateCurrDst(165881)
updateCurrDst(166088)
Heartbeat CPU 0 instructions: 68000001 cycles: 70015268 heartbeat IPC: 0.334456 cumulative IPC: 0.335631 (Simulation time: 0 hr 8 min 34 sec) 
updateCurrDst(166151)
updateCurrDst(166258)
updateCurrDst(166278)
updateCurrDst(166393)
updateCurrDst(166656)
updateCurrDst(166710)
updateCurrDst(166816)
updateCurrDst(167081)
updateCurrDst(167335)
updateCurrDst(167407)
updateCurrDst(167468)
updateCurrDst(167476)
updateCurrDst(167624)
updateCurrDst(167627)
updateCurrDst(167898)
updateCurrDst(167938)
updateCurrDst(168177)
updateCurrDst(168306)
Heartbeat CPU 0 instructions: 69000002 cycles: 73017703 heartbeat IPC: 0.333063 cumulative IPC: 0.335495 (Simulation time: 0 hr 8 min 43 sec) 
updateCurrDst(168410)
updateCurrDst(168426)
updateCurrDst(168488)
updateCurrDst(168598)
updateCurrDst(168626)
updateCurrDst(168730)
updateCurrDst(168749)
updateCurrDst(168994)
updateCurrDst(169131)
updateCurrDst(169212)
updateCurrDst(169307)
updateCurrDst(169388)
updateCurrDst(169465)
updateCurrDst(169489)
updateCurrDst(169493)
updateCurrDst(169497)
updateCurrDst(169714)
updateCurrDst(169847)
updateCurrDst(169962)
updateCurrDst(169995)
updateCurrDst(170034)
updateCurrDst(170069)
updateCurrDst(170101)
updateCurrDst(170389)
updateCurrDst(170436)
updateCurrDst(170468)
updateCurrDst(170532)
updateCurrDst(170616)
updateCurrDst(170856)
updateCurrDst(170880)
updateCurrDst(170920)
updateCurrDst(170994)
updateCurrDst(171001)
Heartbeat CPU 0 instructions: 70000000 cycles: 76028948 heartbeat IPC: 0.332088 cumulative IPC: 0.335323 (Simulation time: 0 hr 8 min 51 sec) 
updateCurrDst(171020)
updateCurrDst(171117)
updateCurrDst(171127)
updateCurrDst(171366)
updateCurrDst(171462)
updateCurrDst(171526)
updateCurrDst(171559)
updateCurrDst(171590)
updateCurrDst(171647)
updateCurrDst(171665)
updateCurrDst(171678)
updateCurrDst(171741)
updateCurrDst(171770)
updateCurrDst(171814)
updateCurrDst(171975)
updateCurrDst(172069)
updateCurrDst(172073)
updateCurrDst(172134)
updateCurrDst(172322)
updateCurrDst(172545)
updateCurrDst(172626)
updateCurrDst(172696)
updateCurrDst(172783)
updateCurrDst(172898)
updateCurrDst(172955)
updateCurrDst(172961)
updateCurrDst(173140)
updateCurrDst(173211)
updateCurrDst(173353)
Heartbeat CPU 0 instructions: 71000000 cycles: 79042937 heartbeat IPC: 0.331786 cumulative IPC: 0.335153 (Simulation time: 0 hr 8 min 59 sec) 
updateCurrDst(173482)
updateCurrDst(173555)
updateCurrDst(173593)
updateCurrDst(173755)
updateCurrDst(173863)
updateCurrDst(173991)
updateCurrDst(174050)
updateCurrDst(174105)
updateCurrDst(174126)
updateCurrDst(174183)
updateCurrDst(174224)
updateCurrDst(174257)
updateCurrDst(174271)
updateCurrDst(174324)
updateCurrDst(174394)
updateCurrDst(174433)
updateCurrDst(174604)
updateCurrDst(174649)
updateCurrDst(174739)
updateCurrDst(174814)
updateCurrDst(175000)
updateCurrDst(175062)
updateCurrDst(175070)
updateCurrDst(175106)
updateCurrDst(175162)
updateCurrDst(175275)
updateCurrDst(175510)
updateCurrDst(175536)
updateCurrDst(175566)
updateCurrDst(175821)
updateCurrDst(175921)
updateCurrDst(175923)
Heartbeat CPU 0 instructions: 72000000 cycles: 82040969 heartbeat IPC: 0.333552 cumulative IPC: 0.33508 (Simulation time: 0 hr 9 min 8 sec) 
updateCurrDst(176146)
updateCurrDst(176274)
updateCurrDst(176426)
updateCurrDst(176599)
updateCurrDst(176630)
updateCurrDst(176922)
updateCurrDst(177049)
updateCurrDst(177144)
updateCurrDst(177190)
updateCurrDst(177228)
updateCurrDst(177313)
updateCurrDst(177405)
updateCurrDst(177409)
updateCurrDst(177599)
updateCurrDst(177607)
updateCurrDst(177675)
updateCurrDst(177677)
updateCurrDst(177834)
updateCurrDst(177926)
updateCurrDst(177954)
updateCurrDst(178115)
updateCurrDst(178243)
updateCurrDst(178318)
updateCurrDst(178387)
updateCurrDst(178546)
Heartbeat CPU 0 instructions: 73000000 cycles: 85011133 heartbeat IPC: 0.336682 cumulative IPC: 0.335149 (Simulation time: 0 hr 9 min 16 sec) 
updateCurrDst(178755)
updateCurrDst(178812)
updateCurrDst(178842)
updateCurrDst(178920)
updateCurrDst(179084)
updateCurrDst(179496)
updateCurrDst(179501)
updateCurrDst(179520)
updateCurrDst(179772)
updateCurrDst(179836)
updateCurrDst(179971)
updateCurrDst(179998)
updateCurrDst(180204)
updateCurrDst(180453)
updateCurrDst(180760)
updateCurrDst(180762)
updateCurrDst(180764)
updateCurrDst(180797)
updateCurrDst(180896)
updateCurrDst(180905)
updateCurrDst(181036)
updateCurrDst(181137)
updateCurrDst(181145)
updateCurrDst(181195)
Heartbeat CPU 0 instructions: 74000000 cycles: 87970228 heartbeat IPC: 0.337941 cumulative IPC: 0.335264 (Simulation time: 0 hr 9 min 24 sec) 
updateCurrDst(181320)
updateCurrDst(181352)
updateCurrDst(181742)
updateCurrDst(181768)
updateCurrDst(181955)
updateCurrDst(182027)
updateCurrDst(182078)
updateCurrDst(182220)
updateCurrDst(182460)
updateCurrDst(182576)
updateCurrDst(182641)
updateCurrDst(182714)
updateCurrDst(182717)
updateCurrDst(182731)
updateCurrDst(183002)
updateCurrDst(183154)
updateCurrDst(183247)
updateCurrDst(183406)
updateCurrDst(183689)
Heartbeat CPU 0 instructions: 75000003 cycles: 90949382 heartbeat IPC: 0.335667 cumulative IPC: 0.33528 (Simulation time: 0 hr 9 min 33 sec) 
updateCurrDst(183944)
updateCurrDst(184062)
updateCurrDst(184158)
updateCurrDst(184204)
updateCurrDst(184281)
updateCurrDst(184357)
updateCurrDst(184404)
updateCurrDst(184507)
updateCurrDst(184718)
updateCurrDst(184767)
updateCurrDst(184787)
updateCurrDst(184962)
updateCurrDst(184996)
updateCurrDst(185085)
updateCurrDst(185553)
updateCurrDst(185639)
updateCurrDst(185805)
updateCurrDst(185816)
updateCurrDst(185940)
updateCurrDst(185946)
updateCurrDst(186170)
updateCurrDst(186206)
updateCurrDst(186222)
updateCurrDst(186349)
updateCurrDst(186360)
Heartbeat CPU 0 instructions: 76000002 cycles: 93901623 heartbeat IPC: 0.338725 cumulative IPC: 0.335412 (Simulation time: 0 hr 9 min 42 sec) 
updateCurrDst(186694)
updateCurrDst(186738)
updateCurrDst(186932)
updateCurrDst(186962)
updateCurrDst(186982)
updateCurrDst(187027)
updateCurrDst(187058)
updateCurrDst(187085)
updateCurrDst(187145)
updateCurrDst(187180)
updateCurrDst(187198)
updateCurrDst(187372)
updateCurrDst(187394)
updateCurrDst(187464)
updateCurrDst(187629)
updateCurrDst(187811)
updateCurrDst(187830)
updateCurrDst(187932)
updateCurrDst(188082)
updateCurrDst(188111)
updateCurrDst(188219)
updateCurrDst(188226)
updateCurrDst(188298)
updateCurrDst(188399)
updateCurrDst(188506)
updateCurrDst(188696)
updateCurrDst(188743)
updateCurrDst(189010)
updateCurrDst(189116)
updateCurrDst(189235)
Heartbeat CPU 0 instructions: 77000000 cycles: 96876910 heartbeat IPC: 0.336101 cumulative IPC: 0.335437 (Simulation time: 0 hr 9 min 50 sec) 
updateCurrDst(189263)
updateCurrDst(189281)
updateCurrDst(189291)
updateCurrDst(189293)
updateCurrDst(189384)
updateCurrDst(189518)
updateCurrDst(189840)
updateCurrDst(189940)
updateCurrDst(190014)
updateCurrDst(190111)
updateCurrDst(190205)
updateCurrDst(190384)
updateCurrDst(190529)
updateCurrDst(190627)
updateCurrDst(190819)
updateCurrDst(190853)
updateCurrDst(191028)
updateCurrDst(191055)
updateCurrDst(191174)
updateCurrDst(191222)
updateCurrDst(191248)
updateCurrDst(191342)
updateCurrDst(191788)
updateCurrDst(191809)
Heartbeat CPU 0 instructions: 78000000 cycles: 99873159 heartbeat IPC: 0.333751 cumulative IPC: 0.335377 (Simulation time: 0 hr 10 min 0 sec) 
updateCurrDst(191891)
updateCurrDst(191899)
updateCurrDst(191984)
updateCurrDst(192108)
updateCurrDst(192184)
updateCurrDst(192417)
updateCurrDst(192515)
updateCurrDst(192649)
updateCurrDst(193096)
updateCurrDst(193135)
updateCurrDst(193216)
updateCurrDst(193220)
updateCurrDst(193241)
updateCurrDst(193255)
updateCurrDst(193373)
updateCurrDst(193388)
updateCurrDst(193446)
updateCurrDst(193484)
updateCurrDst(193643)
updateCurrDst(193705)
updateCurrDst(193731)
updateCurrDst(193819)
updateCurrDst(193823)
updateCurrDst(193909)
updateCurrDst(194087)
updateCurrDst(194147)
updateCurrDst(194316)
updateCurrDst(194329)
updateCurrDst(194334)
updateCurrDst(194440)
updateCurrDst(194450)
updateCurrDst(194479)
Heartbeat CPU 0 instructions: 79000000 cycles: 102873386 heartbeat IPC: 0.333308 cumulative IPC: 0.335305 (Simulation time: 0 hr 10 min 9 sec) 
updateCurrDst(194617)
updateCurrDst(194714)
updateCurrDst(194778)
updateCurrDst(194782)
updateCurrDst(194791)
updateCurrDst(195321)
updateCurrDst(195391)
updateCurrDst(195434)
updateCurrDst(195443)
updateCurrDst(195458)
updateCurrDst(195474)
updateCurrDst(195577)
updateCurrDst(195580)
updateCurrDst(195634)
updateCurrDst(195747)
updateCurrDst(195958)
updateCurrDst(195984)
updateCurrDst(196051)
updateCurrDst(196100)
updateCurrDst(196105)
updateCurrDst(196129)
updateCurrDst(196184)
updateCurrDst(196305)
updateCurrDst(196569)
updateCurrDst(196579)
updateCurrDst(196667)
updateCurrDst(196697)
updateCurrDst(196768)
updateCurrDst(196990)
updateCurrDst(197092)
updateCurrDst(197195)
updateCurrDst(197282)
updateCurrDst(197472)
updateCurrDst(197520)
Heartbeat CPU 0 instructions: 80000002 cycles: 105840400 heartbeat IPC: 0.33704 cumulative IPC: 0.335362 (Simulation time: 0 hr 10 min 18 sec) 
updateCurrDst(197604)
updateCurrDst(197673)
updateCurrDst(197802)
updateCurrDst(197867)
updateCurrDst(198078)
updateCurrDst(198133)
updateCurrDst(198313)
updateCurrDst(198383)
updateCurrDst(198416)
updateCurrDst(198712)
updateCurrDst(198830)
updateCurrDst(198861)
updateCurrDst(198921)
updateCurrDst(198951)
updateCurrDst(199233)
updateCurrDst(199260)
updateCurrDst(199347)
updateCurrDst(199361)
updateCurrDst(199572)
updateCurrDst(199760)
updateCurrDst(200005)
updateCurrDst(200012)
Heartbeat CPU 0 instructions: 81000001 cycles: 108839513 heartbeat IPC: 0.333432 cumulative IPC: 0.3353 (Simulation time: 0 hr 10 min 26 sec) 
updateCurrDst(200231)
updateCurrDst(200261)
updateCurrDst(200346)
updateCurrDst(200364)
updateCurrDst(200454)
updateCurrDst(200539)
updateCurrDst(200713)
updateCurrDst(200809)
updateCurrDst(200882)
updateCurrDst(200922)
updateCurrDst(201118)
updateCurrDst(201552)
updateCurrDst(201556)
updateCurrDst(201616)
updateCurrDst(201680)
updateCurrDst(201836)
updateCurrDst(201986)
updateCurrDst(202015)
updateCurrDst(202080)
updateCurrDst(202117)
updateCurrDst(202244)
updateCurrDst(202431)
updateCurrDst(202450)
updateCurrDst(202500)
updateCurrDst(202511)
updateCurrDst(202655)
updateCurrDst(202760)
updateCurrDst(202817)
updateCurrDst(202827)
updateCurrDst(202866)
updateCurrDst(202867)
updateCurrDst(202870)
Heartbeat CPU 0 instructions: 82000000 cycles: 111792354 heartbeat IPC: 0.338657 cumulative IPC: 0.335404 (Simulation time: 0 hr 10 min 35 sec) 
updateCurrDst(202929)
updateCurrDst(202941)
updateCurrDst(203039)
updateCurrDst(203160)
updateCurrDst(203251)
updateCurrDst(203270)
updateCurrDst(203362)
updateCurrDst(203412)
updateCurrDst(203681)
updateCurrDst(203746)
updateCurrDst(203878)
updateCurrDst(203997)
updateCurrDst(204118)
updateCurrDst(204127)
updateCurrDst(204282)
updateCurrDst(204395)
updateCurrDst(204711)
updateCurrDst(204792)
updateCurrDst(204880)
updateCurrDst(204955)
updateCurrDst(204958)
updateCurrDst(205059)
updateCurrDst(205068)
updateCurrDst(205114)
Heartbeat CPU 0 instructions: 83000002 cycles: 114802845 heartbeat IPC: 0.332172 cumulative IPC: 0.335305 (Simulation time: 0 hr 10 min 43 sec) 
updateCurrDst(205252)
updateCurrDst(205260)
updateCurrDst(205288)
updateCurrDst(205443)
updateCurrDst(205509)
updateCurrDst(205690)
updateCurrDst(205840)
updateCurrDst(205926)
updateCurrDst(205995)
updateCurrDst(206077)
updateCurrDst(206171)
updateCurrDst(206239)
updateCurrDst(206315)
updateCurrDst(206365)
updateCurrDst(206758)
updateCurrDst(207044)
updateCurrDst(207076)
updateCurrDst(207106)
updateCurrDst(207125)
updateCurrDst(207270)
updateCurrDst(207271)
updateCurrDst(207282)
updateCurrDst(207336)
updateCurrDst(207666)
updateCurrDst(207777)
updateCurrDst(207833)
updateCurrDst(208132)
updateCurrDst(208154)
Heartbeat CPU 0 instructions: 84000000 cycles: 117736725 heartbeat IPC: 0.340845 cumulative IPC: 0.335465 (Simulation time: 0 hr 10 min 53 sec) 
updateCurrDst(208224)
updateCurrDst(208276)
updateCurrDst(208348)
updateCurrDst(208433)
updateCurrDst(208456)
updateCurrDst(208488)
updateCurrDst(208583)
updateCurrDst(208762)
updateCurrDst(208846)
updateCurrDst(208923)
updateCurrDst(209044)
updateCurrDst(209069)
updateCurrDst(209135)
updateCurrDst(209466)
updateCurrDst(209500)
updateCurrDst(209551)
updateCurrDst(209621)
updateCurrDst(209755)
updateCurrDst(209786)
updateCurrDst(210172)
updateCurrDst(210228)
updateCurrDst(210312)
updateCurrDst(210383)
updateCurrDst(210414)
updateCurrDst(210523)
updateCurrDst(210533)
updateCurrDst(210674)
updateCurrDst(210682)
updateCurrDst(210698)
Heartbeat CPU 0 instructions: 85000001 cycles: 120694726 heartbeat IPC: 0.338066 cumulative IPC: 0.335539 (Simulation time: 0 hr 11 min 0 sec) 
updateCurrDst(211039)
updateCurrDst(211052)
updateCurrDst(211059)
updateCurrDst(211134)
updateCurrDst(211197)
updateCurrDst(211358)
updateCurrDst(211822)
updateCurrDst(211972)
updateCurrDst(212083)
updateCurrDst(212249)
updateCurrDst(212434)
updateCurrDst(212553)
updateCurrDst(212709)
updateCurrDst(212716)
updateCurrDst(212923)
updateCurrDst(212948)
updateCurrDst(213005)
updateCurrDst(213032)
updateCurrDst(213067)
updateCurrDst(213345)
updateCurrDst(213447)
updateCurrDst(213514)
updateCurrDst(213588)
updateCurrDst(213762)
updateCurrDst(213854)
updateCurrDst(213892)
updateCurrDst(213949)
updateCurrDst(213950)
updateCurrDst(213960)
updateCurrDst(213961)
updateCurrDst(213967)
Heartbeat CPU 0 instructions: 86000000 cycles: 123629594 heartbeat IPC: 0.34073 cumulative IPC: 0.335681 (Simulation time: 0 hr 11 min 9 sec) 
updateCurrDst(214071)
updateCurrDst(214161)
updateCurrDst(214163)
updateCurrDst(214241)
updateCurrDst(214313)
updateCurrDst(214343)
updateCurrDst(214494)
updateCurrDst(214503)
updateCurrDst(214521)
updateCurrDst(214531)
updateCurrDst(214639)
updateCurrDst(214714)
updateCurrDst(214807)
updateCurrDst(214877)
updateCurrDst(215073)
updateCurrDst(215108)
updateCurrDst(215283)
updateCurrDst(215338)
updateCurrDst(215412)
updateCurrDst(215645)
updateCurrDst(215647)
updateCurrDst(215654)
updateCurrDst(215680)
updateCurrDst(215949)
updateCurrDst(216009)
updateCurrDst(216114)
updateCurrDst(216138)
updateCurrDst(216378)
updateCurrDst(216421)
updateCurrDst(216501)
updateCurrDst(216624)
Heartbeat CPU 0 instructions: 87000000 cycles: 126589277 heartbeat IPC: 0.337874 cumulative IPC: 0.33574 (Simulation time: 0 hr 11 min 20 sec) 
updateCurrDst(216688)
updateCurrDst(216733)
updateCurrDst(216805)
updateCurrDst(216985)
updateCurrDst(217219)
updateCurrDst(217331)
updateCurrDst(217444)
updateCurrDst(217536)
updateCurrDst(217836)
updateCurrDst(217977)
updateCurrDst(217993)
updateCurrDst(218008)
updateCurrDst(218169)
updateCurrDst(218210)
updateCurrDst(218260)
updateCurrDst(218293)
updateCurrDst(218434)
updateCurrDst(218439)
Heartbeat CPU 0 instructions: 88000000 cycles: 129598503 heartbeat IPC: 0.332311 cumulative IPC: 0.335649 (Simulation time: 0 hr 11 min 30 sec) 
updateCurrDst(218620)
updateCurrDst(218636)
updateCurrDst(218665)
updateCurrDst(218669)
updateCurrDst(218678)
updateCurrDst(218838)
updateCurrDst(219121)
updateCurrDst(219230)
updateCurrDst(219330)
updateCurrDst(219355)
updateCurrDst(219670)
updateCurrDst(219922)
updateCurrDst(219923)
updateCurrDst(219967)
updateCurrDst(219974)
updateCurrDst(220065)
updateCurrDst(220143)
updateCurrDst(220201)
updateCurrDst(220394)
updateCurrDst(220425)
updateCurrDst(220466)
updateCurrDst(220487)
updateCurrDst(220489)
updateCurrDst(220497)
updateCurrDst(220526)
updateCurrDst(220566)
updateCurrDst(220697)
updateCurrDst(220762)
updateCurrDst(220781)
updateCurrDst(220783)
updateCurrDst(220904)
updateCurrDst(220993)
updateCurrDst(221096)
updateCurrDst(221142)
Heartbeat CPU 0 instructions: 89000000 cycles: 132559038 heartbeat IPC: 0.337777 cumulative IPC: 0.335703 (Simulation time: 0 hr 11 min 39 sec) 
updateCurrDst(221361)
updateCurrDst(221421)
updateCurrDst(221463)
updateCurrDst(221608)
updateCurrDst(221630)
updateCurrDst(221961)
updateCurrDst(222062)
updateCurrDst(222439)
updateCurrDst(222445)
updateCurrDst(222575)
updateCurrDst(222783)
updateCurrDst(222857)
updateCurrDst(222942)
updateCurrDst(223140)
updateCurrDst(223343)
updateCurrDst(223380)
updateCurrDst(223447)
Heartbeat CPU 0 instructions: 90000000 cycles: 135545976 heartbeat IPC: 0.334791 cumulative IPC: 0.33568 (Simulation time: 0 hr 11 min 49 sec) 
updateCurrDst(223632)
updateCurrDst(223764)
updateCurrDst(223804)
updateCurrDst(223915)
updateCurrDst(224508)
updateCurrDst(224532)
updateCurrDst(224736)
updateCurrDst(224796)
updateCurrDst(224815)
updateCurrDst(224820)
updateCurrDst(224899)
updateCurrDst(224931)
updateCurrDst(224953)
updateCurrDst(225214)
updateCurrDst(225289)
updateCurrDst(225423)
updateCurrDst(225446)
updateCurrDst(225647)
updateCurrDst(225693)
updateCurrDst(225727)
updateCurrDst(225805)
updateCurrDst(226007)
updateCurrDst(226021)
updateCurrDst(226048)
updateCurrDst(226124)
Heartbeat CPU 0 instructions: 91000000 cycles: 138530670 heartbeat IPC: 0.335043 cumulative IPC: 0.335665 (Simulation time: 0 hr 11 min 56 sec) 
updateCurrDst(226483)
updateCurrDst(226525)
updateCurrDst(226581)
updateCurrDst(226618)
updateCurrDst(226657)
updateCurrDst(226758)
updateCurrDst(226803)
updateCurrDst(226973)
updateCurrDst(227089)
updateCurrDst(227108)
updateCurrDst(227111)
updateCurrDst(227127)
updateCurrDst(227148)
updateCurrDst(227204)
updateCurrDst(227261)
updateCurrDst(227313)
updateCurrDst(227514)
updateCurrDst(227551)
updateCurrDst(227806)
updateCurrDst(227866)
updateCurrDst(227867)
updateCurrDst(227926)
updateCurrDst(227998)
updateCurrDst(228038)
updateCurrDst(228087)
updateCurrDst(228419)
updateCurrDst(228523)
updateCurrDst(228602)
updateCurrDst(228662)
updateCurrDst(228806)
updateCurrDst(228877)
updateCurrDst(229031)
updateCurrDst(229053)
Heartbeat CPU 0 instructions: 92000000 cycles: 141510384 heartbeat IPC: 0.335603 cumulative IPC: 0.335663 (Simulation time: 0 hr 12 min 6 sec) 
updateCurrDst(229117)
updateCurrDst(229167)
updateCurrDst(229181)
updateCurrDst(229239)
updateCurrDst(229616)
updateCurrDst(229689)
updateCurrDst(229695)
updateCurrDst(229705)
updateCurrDst(229758)
updateCurrDst(229969)
updateCurrDst(230007)
updateCurrDst(230028)
updateCurrDst(230260)
updateCurrDst(230318)
updateCurrDst(230357)
updateCurrDst(230525)
updateCurrDst(230640)
updateCurrDst(230660)
updateCurrDst(230794)
updateCurrDst(230814)
updateCurrDst(230853)
updateCurrDst(230949)
updateCurrDst(231031)
updateCurrDst(231073)
updateCurrDst(231097)
updateCurrDst(231123)
updateCurrDst(231214)
Heartbeat CPU 0 instructions: 93000000 cycles: 144501497 heartbeat IPC: 0.334324 cumulative IPC: 0.335632 (Simulation time: 0 hr 12 min 14 sec) 
updateCurrDst(231549)
updateCurrDst(231619)
updateCurrDst(231622)
updateCurrDst(231724)
updateCurrDst(231738)
updateCurrDst(231778)
updateCurrDst(231878)
updateCurrDst(231901)
updateCurrDst(232054)
updateCurrDst(232066)
updateCurrDst(232131)
updateCurrDst(232442)
updateCurrDst(232553)
updateCurrDst(232560)
updateCurrDst(232698)
updateCurrDst(232741)
updateCurrDst(232785)
updateCurrDst(232813)
updateCurrDst(232942)
updateCurrDst(233085)
updateCurrDst(233088)
updateCurrDst(233127)
updateCurrDst(233261)
updateCurrDst(233325)
updateCurrDst(233359)
updateCurrDst(233519)
updateCurrDst(233628)
updateCurrDst(233780)
updateCurrDst(233949)
updateCurrDst(233981)
updateCurrDst(234016)
updateCurrDst(234094)
Heartbeat CPU 0 instructions: 94000002 cycles: 147457146 heartbeat IPC: 0.338336 cumulative IPC: 0.335693 (Simulation time: 0 hr 12 min 21 sec) 
updateCurrDst(234181)
updateCurrDst(234214)
updateCurrDst(234348)
updateCurrDst(234389)
updateCurrDst(234428)
updateCurrDst(234768)
updateCurrDst(234871)
updateCurrDst(234879)
updateCurrDst(235359)
updateCurrDst(235504)
updateCurrDst(235630)
updateCurrDst(235666)
updateCurrDst(235713)
updateCurrDst(235936)
updateCurrDst(236072)
updateCurrDst(236092)
updateCurrDst(236111)
updateCurrDst(236176)
updateCurrDst(236212)
updateCurrDst(236241)
updateCurrDst(236248)
updateCurrDst(236267)
updateCurrDst(236330)
updateCurrDst(236355)
updateCurrDst(236479)
Heartbeat CPU 0 instructions: 95000000 cycles: 150463382 heartbeat IPC: 0.332641 cumulative IPC: 0.335624 (Simulation time: 0 hr 12 min 29 sec) 
updateCurrDst(236609)
updateCurrDst(236618)
updateCurrDst(236950)
updateCurrDst(237019)
updateCurrDst(237427)
updateCurrDst(237639)
updateCurrDst(237647)
updateCurrDst(237651)
updateCurrDst(237879)
updateCurrDst(237881)
updateCurrDst(238004)
updateCurrDst(238012)
updateCurrDst(238114)
updateCurrDst(238438)
updateCurrDst(238477)
updateCurrDst(238581)
updateCurrDst(238594)
Heartbeat CPU 0 instructions: 96000000 cycles: 153500529 heartbeat IPC: 0.329256 cumulative IPC: 0.335483 (Simulation time: 0 hr 12 min 38 sec) 
updateCurrDst(238702)
updateCurrDst(238820)
updateCurrDst(238986)
updateCurrDst(239214)
updateCurrDst(239221)
updateCurrDst(239284)
updateCurrDst(239986)
updateCurrDst(240142)
updateCurrDst(240181)
updateCurrDst(240266)
updateCurrDst(240286)
updateCurrDst(240421)
updateCurrDst(240526)
updateCurrDst(240535)
updateCurrDst(240763)
updateCurrDst(240878)
updateCurrDst(240906)
updateCurrDst(241116)
Heartbeat CPU 0 instructions: 97000003 cycles: 156523806 heartbeat IPC: 0.330768 cumulative IPC: 0.335382 (Simulation time: 0 hr 12 min 47 sec) 
updateCurrDst(241190)
updateCurrDst(241221)
updateCurrDst(241227)
updateCurrDst(241342)
updateCurrDst(241419)
updateCurrDst(241583)
updateCurrDst(241585)
updateCurrDst(241830)
updateCurrDst(241850)
updateCurrDst(241969)
updateCurrDst(242125)
updateCurrDst(242144)
updateCurrDst(242192)
updateCurrDst(242295)
updateCurrDst(242370)
updateCurrDst(242375)
updateCurrDst(242508)
updateCurrDst(242623)
updateCurrDst(242752)
updateCurrDst(242774)
updateCurrDst(242807)
updateCurrDst(242819)
updateCurrDst(242861)
updateCurrDst(242870)
updateCurrDst(242928)
updateCurrDst(242987)
updateCurrDst(243127)
updateCurrDst(243203)
updateCurrDst(243316)
updateCurrDst(243397)
updateCurrDst(243701)
updateCurrDst(243761)
updateCurrDst(243902)
Heartbeat CPU 0 instructions: 98000002 cycles: 159527758 heartbeat IPC: 0.332894 cumulative IPC: 0.335329 (Simulation time: 0 hr 12 min 55 sec) 
updateCurrDst(244024)
updateCurrDst(244238)
updateCurrDst(244366)
updateCurrDst(244398)
updateCurrDst(244631)
updateCurrDst(244646)
updateCurrDst(244807)
updateCurrDst(245145)
updateCurrDst(245248)
updateCurrDst(245264)
updateCurrDst(245308)
updateCurrDst(245942)
updateCurrDst(246038)
updateCurrDst(246107)
updateCurrDst(246301)
updateCurrDst(246393)
updateCurrDst(246404)
updateCurrDst(246478)
updateCurrDst(246594)
updateCurrDst(246616)
updateCurrDst(246640)
Heartbeat CPU 0 instructions: 99000000 cycles: 162538661 heartbeat IPC: 0.332126 cumulative IPC: 0.335263 (Simulation time: 0 hr 13 min 4 sec) 
updateCurrDst(247046)
updateCurrDst(247074)
updateCurrDst(247152)
updateCurrDst(247220)
updateCurrDst(247309)
updateCurrDst(247315)
updateCurrDst(247336)
updateCurrDst(247479)
updateCurrDst(247565)
updateCurrDst(247718)
updateCurrDst(247723)
updateCurrDst(247951)
updateCurrDst(247956)
updateCurrDst(248048)
updateCurrDst(248165)
updateCurrDst(248264)
updateCurrDst(248320)
updateCurrDst(248351)
updateCurrDst(248425)
updateCurrDst(248545)
updateCurrDst(248650)
updateCurrDst(248676)
updateCurrDst(248683)
updateCurrDst(248892)
updateCurrDst(248940)
updateCurrDst(248968)
updateCurrDst(249028)
updateCurrDst(249195)
updateCurrDst(249289)
updateCurrDst(249306)
updateCurrDst(249353)
updateCurrDst(249389)
updateCurrDst(249397)
Heartbeat CPU 0 instructions: 100000001 cycles: 165552974 heartbeat IPC: 0.331751 cumulative IPC: 0.335192 (Simulation time: 0 hr 13 min 12 sec) 
updateCurrDst(249589)
updateCurrDst(249667)
updateCurrDst(249735)
updateCurrDst(249815)
updateCurrDst(250112)
updateCurrDst(250217)
updateCurrDst(250296)
updateCurrDst(250318)
updateCurrDst(250324)
updateCurrDst(250567)
updateCurrDst(250581)
updateCurrDst(250666)
updateCurrDst(250778)
updateCurrDst(250795)
updateCurrDst(250893)
updateCurrDst(250918)
updateCurrDst(250940)
updateCurrDst(250943)
updateCurrDst(251094)
updateCurrDst(251242)
updateCurrDst(251281)
updateCurrDst(251456)
updateCurrDst(251471)
updateCurrDst(251571)
updateCurrDst(251772)
updateCurrDst(252033)
updateCurrDst(252070)
updateCurrDst(252080)
Heartbeat CPU 0 instructions: 101000001 cycles: 168563515 heartbeat IPC: 0.332166 cumulative IPC: 0.335133 (Simulation time: 0 hr 13 min 22 sec) 
updateCurrDst(252201)
updateCurrDst(252309)
updateCurrDst(252336)
updateCurrDst(252480)
updateCurrDst(252578)
updateCurrDst(252892)
updateCurrDst(252898)
updateCurrDst(253137)
updateCurrDst(253182)
updateCurrDst(253203)
updateCurrDst(253231)
updateCurrDst(253623)
updateCurrDst(253678)
updateCurrDst(253788)
updateCurrDst(253828)
updateCurrDst(253931)
updateCurrDst(253950)
updateCurrDst(254109)
updateCurrDst(254330)
updateCurrDst(254355)
updateCurrDst(254489)
updateCurrDst(254675)
updateCurrDst(254942)
Heartbeat CPU 0 instructions: 102000000 cycles: 171567638 heartbeat IPC: 0.332876 cumulative IPC: 0.335089 (Simulation time: 0 hr 13 min 30 sec) 
updateCurrDst(255025)
updateCurrDst(255133)
updateCurrDst(255158)
updateCurrDst(255208)
updateCurrDst(255215)
updateCurrDst(255304)
updateCurrDst(255346)
updateCurrDst(255358)
updateCurrDst(255359)
updateCurrDst(255466)
updateCurrDst(255579)
updateCurrDst(255680)
updateCurrDst(255734)
updateCurrDst(255757)
updateCurrDst(255775)
updateCurrDst(255816)
updateCurrDst(255863)
updateCurrDst(255977)
updateCurrDst(256170)
updateCurrDst(256332)
updateCurrDst(256423)
updateCurrDst(256772)
updateCurrDst(256794)
updateCurrDst(256905)
updateCurrDst(256936)
updateCurrDst(257002)
updateCurrDst(257143)
updateCurrDst(257293)
updateCurrDst(257471)
updateCurrDst(257485)
updateCurrDst(257554)
updateCurrDst(257651)
Heartbeat CPU 0 instructions: 103000003 cycles: 174584160 heartbeat IPC: 0.331509 cumulative IPC: 0.335021 (Simulation time: 0 hr 13 min 39 sec) 
updateCurrDst(257736)
updateCurrDst(258129)
updateCurrDst(258275)
updateCurrDst(258309)
updateCurrDst(258464)
updateCurrDst(258623)
updateCurrDst(258668)
updateCurrDst(258700)
updateCurrDst(258724)
updateCurrDst(258742)
updateCurrDst(258751)
updateCurrDst(259174)
updateCurrDst(259182)
updateCurrDst(259224)
updateCurrDst(259360)
updateCurrDst(259465)
updateCurrDst(259510)
updateCurrDst(259640)
updateCurrDst(259658)
updateCurrDst(259698)
updateCurrDst(259722)
updateCurrDst(259780)
updateCurrDst(259781)
updateCurrDst(259799)
updateCurrDst(260064)
updateCurrDst(260164)
updateCurrDst(260260)
updateCurrDst(260296)
Heartbeat CPU 0 instructions: 104000001 cycles: 177611337 heartbeat IPC: 0.33034 cumulative IPC: 0.334933 (Simulation time: 0 hr 13 min 49 sec) 
updateCurrDst(260367)
updateCurrDst(260371)
updateCurrDst(260377)
updateCurrDst(260453)
updateCurrDst(260501)
updateCurrDst(260678)
updateCurrDst(260836)
updateCurrDst(260883)
updateCurrDst(260918)
updateCurrDst(260947)
updateCurrDst(261022)
updateCurrDst(261056)
updateCurrDst(261315)
updateCurrDst(261417)
updateCurrDst(261453)
updateCurrDst(261886)
updateCurrDst(261887)
updateCurrDst(262045)
*** Reached end of trace for Core: 0 Repeating trace: testcases/pull_g18_k2.xzafter: 104869771
Heartbeat CPU 0 instructions: 105000002 cycles: 180716461 heartbeat IPC: 0.322049 cumulative IPC: 0.334689 (Simulation time: 0 hr 13 min 57 sec) 
PIN_registerGraphs(test_g18_k2.sg,1)
Graphh Number of Nodes: 262140
Heartbeat CPU 0 instructions: 106000000 cycles: 183449613 heartbeat IPC: 0.365877 cumulative IPC: 0.3352 (Simulation time: 0 hr 14 min 9 sec) 
Heartbeat CPU 0 instructions: 107000000 cycles: 184949617 heartbeat IPC: 0.666665 cumulative IPC: 0.338149 (Simulation time: 0 hr 14 min 17 sec) 
Heartbeat CPU 0 instructions: 108000001 cycles: 186451631 heartbeat IPC: 0.665773 cumulative IPC: 0.341043 (Simulation time: 0 hr 14 min 23 sec) 
Heartbeat CPU 0 instructions: 109000001 cycles: 187951639 heartbeat IPC: 0.666663 cumulative IPC: 0.34389 (Simulation time: 0 hr 14 min 30 sec) 
PIN_updateRegBaseBound( 94042230468752, 94042231517312)
updateCurrDst(71)
Heartbeat CPU 0 instructions: 110000000 cycles: 189530398 heartbeat IPC: 0.633408 cumulative IPC: 0.346529 (Simulation time: 0 hr 14 min 37 sec) 
Finished CPU 0 instructions: 60000000 cycles: 173145471 cumulative IPC: 0.346529 (Simulation time: 0 hr 14 min 37 sec) 

ChampSim completed all CPUs

Region of Interest Statistics

CPU 0 cumulative IPC: 0.346529 instructions: 60000000 cycles: 173145471

Total ROB STALLS:                   23019089
STLB MISS ROB STALLS:                   1010
L1D  LOAD MISS ROB STALLS:            552020  Translation MISS ROB STALLS:             0
L2C  LOAD MISS ROB STALLS:            238294  Translation MISS ROB STALLS:             0
LLC  LOAD MISS ROB STALLS:             59030  Translation MISS ROB STALLS:             0

ITLB TOTAL     ACCESS:           8586383  HIT:    8586346  MISS:         37  HIT %:    99.9996  MISS %: 0.000430915   MPKI: 0.000616667
ITLB LOAD TRANSLATION ACCESS:    8586383  HIT:    8586346  MISS:         37  HIT %:    99.9996  MISS %: 0.000430915   MPKI: 0.000616667
ITLB AVERAGE MISS LATENCY:       212.568 cycles
ITLB RQ ACCESS:     9474511	FORWARD:           0	MERGED:       888125	TO_CACHE:    8586386

DTLB TOTAL     ACCESS:          17666954  HIT:   17286992  MISS:     379962  HIT %:    97.8493  MISS %:    2.15069   MPKI: 6.3327
DTLB LOAD TRANSLATION ACCESS:   17666954  HIT:   17286992  MISS:     379962  HIT %:    97.8493  MISS %:    2.15069   MPKI: 6.3327
DTLB AVERAGE MISS LATENCY:       9.64157 cycles
DTLB RQ ACCESS:    23517814	FORWARD:           0	MERGED:      5849960	TO_CACHE:   17667854

STLB TOTAL     ACCESS:            379999  HIT:     378840  MISS:       1159  HIT %:     99.695  MISS %:   0.305001   MPKI: 0.0193167
STLB LOAD TRANSLATION ACCESS:     379999  HIT:     378840  MISS:       1159  HIT %:     99.695  MISS %:   0.305001   MPKI: 0.0193167
STLB AVERAGE MISS LATENCY:       216.827 cycles
STLB RQ ACCESS:      379999	FORWARD:           0	MERGED:            0	TO_CACHE:     379999

PSCL5 TOTAL     ACCESS:              1159  HIT:       1159  MISS:          0  HIT %:        100  MISS %:          0   MPKI: 0
PSCL5 LOAD TRANSLATION ACCESS:       1159  HIT:       1159  MISS:          0  HIT %:        100  MISS %:          0   MPKI: 0

PSCL4 TOTAL     ACCESS:              1159  HIT:       1159  MISS:          0  HIT %:        100  MISS %:          0   MPKI: 0
PSCL4 LOAD TRANSLATION ACCESS:       1159  HIT:       1159  MISS:          0  HIT %:        100  MISS %:          0   MPKI: 0

PSCL3 TOTAL     ACCESS:              1159  HIT:       1159  MISS:          0  HIT %:        100  MISS %:          0   MPKI: 0
PSCL3 LOAD TRANSLATION ACCESS:       1159  HIT:       1159  MISS:          0  HIT %:        100  MISS %:          0   MPKI: 0

PSCL2 TOTAL     ACCESS:              1159  HIT:       1158  MISS:          1  HIT %:    99.9137  MISS %:  0.0862813   MPKI: 1.66667e-05
PSCL2 LOAD TRANSLATION ACCESS:       1159  HIT:       1158  MISS:          1  HIT %:    99.9137  MISS %:  0.0862813   MPKI: 1.66667e-05

L1D TOTAL     ACCESS:          23376758  HIT:   22788308  MISS:     588450  HIT %:    97.4828  MISS %:    2.51724   MPKI: 9.8075  USED:     117743  UNUSED:     470707
L1D LOAD      ACCESS:           9434621  HIT:    8882421  MISS:     552200  HIT %:    94.1471  MISS %:    5.85291   MPKI: 9.20333  USED:     117582  UNUSED:     434920
L1D RFO       ACCESS:          13942137  HIT:   13905887  MISS:      36250  HIT %:      99.74  MISS %:   0.260003   MPKI: 0.604167
L1D PTL1 TRANSLATION ACCESS:          0  HIT:          0  MISS:          0  HIT %:       -nan  MISS %:       -nan   MPKI: 0
L1D PTL2 TRANSLATION ACCESS:          0  HIT:          0  MISS:          0  HIT %:       -nan  MISS %:       -nan   MPKI: 0
L1D PTL3 TRANSLATION ACCESS:          0  HIT:          0  MISS:          0  HIT %:       -nan  MISS %:       -nan   MPKI: 0
L1D PTL4 TRANSLATION ACCESS:          0  HIT:          0  MISS:          0  HIT %:       -nan  MISS %:       -nan   MPKI: 0
L1D PTL5 TRANSLATION ACCESS:          0  HIT:          0  MISS:          0  HIT %:       -nan  MISS %:       -nan   MPKI: 0
L1D TOTAL EVICTIONS:             588450  TRANSLATION EVICTIONS:          0  TRANSLATION EVICTING TRANSALTION:          0  TRANSLATION EVICTING LOAD:          0  LOAD EVICTING TRANSALTION:          0  LOAD EVICTING LOAD:      551347
L1D AVERAGE MISS LATENCY:       39.6951 cycles  AVERAGE LOAD MISS LATENCY:       38.3356 cycles  AVERAGE LOAD TRANSLATION MISS LATENCY:          -nan cycles
L1D RQ ACCESS:    14595985	FORWARD:           0	MERGED:      3796957	TO_CACHE:    9434663
L1D WQ ACCESS:    14429103	FORWARD:     1364365	MERGED:       345952	TO_CACHE:   14083151

L1I TOTAL     ACCESS:           9474491  HIT:    9474287  MISS:        204  HIT %:    99.9978  MISS %: 0.00215315   MPKI: 0.0034
L1I LOAD      ACCESS:           9474491  HIT:    9474287  MISS:        204  HIT %:    99.9978  MISS %: 0.00215315   MPKI: 0.0034
L1I AVERAGE MISS LATENCY:       185.402 cycles
L1I RQ ACCESS:    14791035	FORWARD:           0	MERGED:      5316524	TO_CACHE:    9474511

L2C TOTAL     ACCESS:            633675  HIT:     359007  MISS:     274668  HIT %:    56.6548  MISS %:    43.3452   MPKI: 4.5778  USED:      79906  UNUSED:     194762
L2C LOAD      ACCESS:            552404  HIT:     313781  MISS:     238623  HIT %:    56.8028  MISS %:    43.1972   MPKI: 3.97705  USED:      79847  UNUSED:     166492
L2C RFO       ACCESS:             36250  HIT:        255  MISS:      35995  HIT %:   0.703448  MISS %:    99.2966   MPKI: 0.599917
L2C WRITEBACK ACCESS:             45021  HIT:      44971  MISS:         50  HIT %:    99.8889  MISS %:   0.111059   MPKI: 0.000833333
L2C PTL1 TRANSLATION ACCESS:          0  HIT:          0  MISS:          0  HIT %:       -nan  MISS %:       -nan   MPKI: 0
L2C PTL2 TRANSLATION ACCESS:          0  HIT:          0  MISS:          0  HIT %:       -nan  MISS %:       -nan   MPKI: 0
L2C PTL3 TRANSLATION ACCESS:          0  HIT:          0  MISS:          0  HIT %:       -nan  MISS %:       -nan   MPKI: 0
L2C PTL4 TRANSLATION ACCESS:          0  HIT:          0  MISS:          0  HIT %:       -nan  MISS %:       -nan   MPKI: 0
L2C PTL5 TRANSLATION ACCESS:          0  HIT:          0  MISS:          0  HIT %:       -nan  MISS %:       -nan   MPKI: 0
L2C TOTAL EVICTIONS:             274668  TRANSLATION EVICTIONS:          0  TRANSLATION EVICTING TRANSALTION:          0  TRANSLATION EVICTING LOAD:          0  LOAD EVICTING TRANSALTION:          0  LOAD EVICTING LOAD:      238053
L2C AVERAGE MISS LATENCY:        53.034 cycles  AVERAGE LOAD MISS LATENCY:       54.1475 cycles  AVERAGE LOAD TRANSLATION MISS LATENCY:          -nan cycles
L2C RQ ACCESS:      588654	FORWARD:           0	MERGED:            0	TO_CACHE:     588654
L2C WQ ACCESS:       45021	FORWARD:           0	MERGED:            0	TO_CACHE:      45021

LLC TOTAL     ACCESS:            312332  HIT:     243159  MISS:      69173  HIT %:    77.8527  MISS %:    22.1473   MPKI: 1.15288  USED:          0  UNUSED:          0
LLC LOAD      ACCESS:            238623  HIT:     179305  MISS:      59318  HIT %:    75.1415  MISS %:    24.8585   MPKI: 0.988633  USED:          0  UNUSED:          0
LLC RFO       ACCESS:             35995  HIT:      30596  MISS:       5399  HIT %:    85.0007  MISS %:    14.9993   MPKI: 0.0899833
LLC WRITEBACK ACCESS:             37714  HIT:      33258  MISS:       4456  HIT %:    88.1848  MISS %:    11.8152   MPKI: 0.0742667
LLC PTL1 TRANSLATION ACCESS:          0  HIT:          0  MISS:          0  HIT %:       -nan  MISS %:       -nan   MPKI: 0
LLC PTL2 TRANSLATION ACCESS:          0  HIT:          0  MISS:          0  HIT %:       -nan  MISS %:       -nan   MPKI: 0
LLC PTL3 TRANSLATION ACCESS:          0  HIT:          0  MISS:          0  HIT %:       -nan  MISS %:       -nan   MPKI: 0
LLC PTL4 TRANSLATION ACCESS:          0  HIT:          0  MISS:          0  HIT %:       -nan  MISS %:       -nan   MPKI: 0
LLC PTL5 TRANSLATION ACCESS:          0  HIT:          0  MISS:          0  HIT %:       -nan  MISS %:       -nan   MPKI: 0
LLC TOTAL EVICTIONS:                  0  TRANSLATION EVICTIONS:          0  TRANSLATION EVICTING TRANSALTION:          0  TRANSLATION EVICTING LOAD:          0  LOAD EVICTING TRANSALTION:          0  LOAD EVICTING LOAD:           0
LLC AVERAGE MISS LATENCY:       91.4798 cycles  AVERAGE LOAD MISS LATENCY:       97.1365 cycles  AVERAGE LOAD TRANSLATION MISS LATENCY:          -nan cycles
LLC RQ ACCESS:      274618	FORWARD:           0	MERGED:            0	TO_CACHE:     274618
LLC WQ ACCESS:       37714	FORWARD:           0	MERGED:            0	TO_CACHE:      37714


RAW hits: 11500777
Loads Generated: 26096762
Loads sent to L1D: 14595985
Stores Generated: 14429103
Stores sent to L1D: 14429103
Major fault: 0 Minor fault: 2256
Allocated PAGES: 2256
IRREG DATA L1D ACCESS: 1231188
L2C ACCESSES: 895704
L2C MISSES: 330552
Total LLC accesses: 520606
Total Irreg accesses: 346936

DRAM Statistics
 CHANNEL 0
 RQ ROW_BUFFER_HIT:      46889  ROW_BUFFER_MISS:      18987
 DBUS_CONGESTED:          0
 WQ ROW_BUFFER_HIT:       1686  ROW_BUFFER_MISS:       3322  FULL:          0

 AVG_CONGESTED_CYCLE: -

CPU 0 Branch Prediction Accuracy: 98.6362% MPKI: 1.78668 Average ROB Occupancy at Mispredict: 14.523
Branch types
NOT_BRANCH: 52139391 86.899%
BRANCH_DIRECT_JUMP: 0 0%
BRANCH_INDIRECT: 1261086 2.10181%
BRANCH_CONDITIONAL: 0 0%
BRANCH_DIRECT_CALL: 143664 0.23944%
BRANCH_INDIRECT_CALL: 2308784 3.84797%
BRANCH_RETURN: 2452448 4.08741%
BRANCH_OTHER: 1694283 2.82381%

DRAM PAGES: 1048576
Allocated PAGES: 2256
