
*** ChampSim Multicore Out-of-Order Simulator ***

Warmup Instructions: 50000000
Simulation Instructions: 60000000
Number of CPUs: 1
LLC sets: 2048
LLC ways: 16
Off-chip DRAM Size: 4096 MB Channels: 1 Width: 64-bit Data Rate: 6400 MT/s
CPU 0 runs testcases/pull_g18_k2.xz
.xz
BTB has LRU replacement policy
ITLB has LRU replacement policy
DTLB has LRU replacement policy
STLB has LRU replacement policy
L1I has LRU replacement policy
L1D has LRU replacement policy
L2C has LRU replacement policy
Initialize DRRIP state for LLC
PIN_registerGraphs(test_g18_k2.sg,1)
Graphh Number of Nodes: 262140
Heartbeat CPU 0 instructions: 1000003 cycles: 347856 heartbeat IPC: 2.87476 cumulative IPC: 2.87476 (Simulation time: 0 hr 0 min 5 sec) 
Heartbeat CPU 0 instructions: 2000003 cycles: 681190 heartbeat IPC: 2.99999 cumulative IPC: 2.93604 (Simulation time: 0 hr 0 min 7 sec) 
Heartbeat CPU 0 instructions: 3000002 cycles: 1014462 heartbeat IPC: 3.00055 cumulative IPC: 2.95723 (Simulation time: 0 hr 0 min 12 sec) 
Heartbeat CPU 0 instructions: 4000001 cycles: 1347794 heartbeat IPC: 3.00001 cumulative IPC: 2.96781 (Simulation time: 0 hr 0 min 15 sec) 
Heartbeat CPU 0 instructions: 5000002 cycles: 1681128 heartbeat IPC: 3 cumulative IPC: 2.97419 (Simulation time: 0 hr 0 min 18 sec) 
PIN_updateRegBaseBound( 94042230468752, 94042231517312)
updateCurrDst(58)
updateCurrDst(104)
updateCurrDst(110)
updateCurrDst(175)
updateCurrDst(268)
updateCurrDst(434)
updateCurrDst(436)
updateCurrDst(606)
updateCurrDst(610)
updateCurrDst(783)
updateCurrDst(863)
updateCurrDst(1006)
updateCurrDst(1243)
updateCurrDst(1285)
updateCurrDst(1466)
updateCurrDst(1552)
updateCurrDst(1593)
updateCurrDst(1635)
updateCurrDst(1811)
updateCurrDst(1899)
updateCurrDst(1923)
updateCurrDst(1990)
updateCurrDst(2017)
updateCurrDst(2329)
Heartbeat CPU 0 instructions: 6000001 cycles: 2009105 heartbeat IPC: 3.04899 cumulative IPC: 2.9864 (Simulation time: 0 hr 0 min 25 sec) 
updateCurrDst(2517)
updateCurrDst(2546)
updateCurrDst(2609)
updateCurrDst(2967)
updateCurrDst(3080)
updateCurrDst(3100)
updateCurrDst(3173)
updateCurrDst(3204)
updateCurrDst(3239)
updateCurrDst(3469)
updateCurrDst(3797)
updateCurrDst(3950)
updateCurrDst(4012)
updateCurrDst(4142)
updateCurrDst(4293)
updateCurrDst(4318)
updateCurrDst(4795)
Heartbeat CPU 0 instructions: 7000002 cycles: 2332955 heartbeat IPC: 3.08785 cumulative IPC: 3.00049 (Simulation time: 0 hr 0 min 31 sec) 
updateCurrDst(4930)
updateCurrDst(5028)
updateCurrDst(5033)
updateCurrDst(5054)
updateCurrDst(5143)
updateCurrDst(5145)
updateCurrDst(5337)
updateCurrDst(5593)
updateCurrDst(5709)
updateCurrDst(5995)
updateCurrDst(6182)
updateCurrDst(6508)
updateCurrDst(6532)
updateCurrDst(6537)
updateCurrDst(6714)
updateCurrDst(7002)
updateCurrDst(7049)
updateCurrDst(7132)
updateCurrDst(7196)
updateCurrDst(7284)
updateCurrDst(7389)
Heartbeat CPU 0 instructions: 8000002 cycles: 2659192 heartbeat IPC: 3.06526 cumulative IPC: 3.00843 (Simulation time: 0 hr 0 min 39 sec) 
updateCurrDst(7470)
updateCurrDst(7651)
updateCurrDst(7698)
updateCurrDst(7720)
updateCurrDst(7779)
updateCurrDst(7782)
updateCurrDst(7904)
updateCurrDst(7968)
updateCurrDst(8026)
updateCurrDst(8297)
updateCurrDst(8381)
updateCurrDst(8457)
updateCurrDst(8520)
updateCurrDst(8542)
updateCurrDst(8728)
updateCurrDst(8892)
updateCurrDst(9105)
updateCurrDst(9119)
updateCurrDst(9212)
updateCurrDst(9312)
updateCurrDst(9330)
updateCurrDst(9624)
updateCurrDst(9654)
updateCurrDst(9772)
updateCurrDst(9881)
updateCurrDst(9962)
updateCurrDst(10106)
updateCurrDst(10361)
Heartbeat CPU 0 instructions: 9000001 cycles: 2990025 heartbeat IPC: 3.02267 cumulative IPC: 3.01001 (Simulation time: 0 hr 0 min 45 sec) 
updateCurrDst(10494)
updateCurrDst(10757)
updateCurrDst(10972)
updateCurrDst(10976)
updateCurrDst(11101)
updateCurrDst(11130)
updateCurrDst(11241)
updateCurrDst(11465)
updateCurrDst(11489)
updateCurrDst(11523)
updateCurrDst(11626)
updateCurrDst(11833)
updateCurrDst(11864)
updateCurrDst(11925)
updateCurrDst(12009)
updateCurrDst(12155)
updateCurrDst(12159)
updateCurrDst(12274)
updateCurrDst(12526)
updateCurrDst(12672)
updateCurrDst(12735)
updateCurrDst(12903)
updateCurrDst(12909)
updateCurrDst(12972)
updateCurrDst(12984)
updateCurrDst(12996)
Heartbeat CPU 0 instructions: 10000000 cycles: 3316637 heartbeat IPC: 3.06173 cumulative IPC: 3.0151 (Simulation time: 0 hr 0 min 52 sec) 
updateCurrDst(13030)
updateCurrDst(13043)
updateCurrDst(13171)
updateCurrDst(13257)
updateCurrDst(13448)
updateCurrDst(13452)
updateCurrDst(13547)
updateCurrDst(13602)
updateCurrDst(13607)
updateCurrDst(13688)
updateCurrDst(13773)
updateCurrDst(13786)
updateCurrDst(13801)
updateCurrDst(13924)
updateCurrDst(14026)
updateCurrDst(14169)
updateCurrDst(14246)
updateCurrDst(14302)
updateCurrDst(14601)
updateCurrDst(14706)
updateCurrDst(14771)
updateCurrDst(14885)
updateCurrDst(14916)
updateCurrDst(14996)
updateCurrDst(15084)
updateCurrDst(15195)
updateCurrDst(15199)
updateCurrDst(15277)
Heartbeat CPU 0 instructions: 11000000 cycles: 3640526 heartbeat IPC: 3.08748 cumulative IPC: 3.02154 (Simulation time: 0 hr 0 min 58 sec) 
updateCurrDst(15448)
updateCurrDst(15859)
updateCurrDst(16085)
updateCurrDst(16112)
updateCurrDst(16212)
updateCurrDst(16251)
updateCurrDst(16258)
updateCurrDst(16271)
updateCurrDst(16695)
updateCurrDst(16770)
updateCurrDst(16822)
updateCurrDst(16862)
updateCurrDst(16889)
updateCurrDst(16932)
updateCurrDst(16941)
updateCurrDst(16956)
updateCurrDst(17040)
updateCurrDst(17187)
updateCurrDst(17231)
updateCurrDst(17285)
updateCurrDst(17330)
updateCurrDst(17555)
updateCurrDst(17617)
updateCurrDst(17622)
updateCurrDst(17689)
updateCurrDst(17709)
Heartbeat CPU 0 instructions: 12000000 cycles: 3963729 heartbeat IPC: 3.09403 cumulative IPC: 3.02745 (Simulation time: 0 hr 1 min 6 sec) 
updateCurrDst(17739)
updateCurrDst(17789)
updateCurrDst(17805)
updateCurrDst(17967)
updateCurrDst(17977)
updateCurrDst(18181)
updateCurrDst(18183)
updateCurrDst(18356)
updateCurrDst(18503)
updateCurrDst(18629)
updateCurrDst(18815)
updateCurrDst(18960)
updateCurrDst(19028)
updateCurrDst(19060)
updateCurrDst(19116)
updateCurrDst(19210)
updateCurrDst(19251)
updateCurrDst(19475)
updateCurrDst(19572)
updateCurrDst(19606)
updateCurrDst(19820)
updateCurrDst(19901)
updateCurrDst(19910)
updateCurrDst(19945)
Heartbeat CPU 0 instructions: 13000002 cycles: 4286783 heartbeat IPC: 3.09546 cumulative IPC: 3.03258 (Simulation time: 0 hr 1 min 15 sec) 
updateCurrDst(20116)
updateCurrDst(20495)
updateCurrDst(20602)
updateCurrDst(20608)
updateCurrDst(20700)
updateCurrDst(20894)
updateCurrDst(20912)
updateCurrDst(20965)
updateCurrDst(21037)
updateCurrDst(21273)
updateCurrDst(21364)
updateCurrDst(21778)
updateCurrDst(21806)
updateCurrDst(21901)
updateCurrDst(22267)
updateCurrDst(22308)
updateCurrDst(22585)
Heartbeat CPU 0 instructions: 14000002 cycles: 4612582 heartbeat IPC: 3.06938 cumulative IPC: 3.03518 (Simulation time: 0 hr 1 min 21 sec) 
updateCurrDst(22644)
updateCurrDst(22681)
updateCurrDst(22735)
updateCurrDst(22745)
updateCurrDst(22841)
updateCurrDst(22992)
updateCurrDst(23083)
updateCurrDst(23211)
updateCurrDst(23311)
updateCurrDst(23668)
updateCurrDst(23718)
updateCurrDst(23853)
updateCurrDst(23955)
updateCurrDst(24018)
updateCurrDst(24071)
updateCurrDst(24218)
updateCurrDst(24445)
updateCurrDst(24579)
updateCurrDst(24905)
updateCurrDst(24931)
updateCurrDst(25075)
updateCurrDst(25091)
updateCurrDst(25097)
Heartbeat CPU 0 instructions: 15000000 cycles: 4939314 heartbeat IPC: 3.06061 cumulative IPC: 3.03686 (Simulation time: 0 hr 1 min 29 sec) 
updateCurrDst(25332)
updateCurrDst(25451)
updateCurrDst(25609)
updateCurrDst(25813)
updateCurrDst(25944)
updateCurrDst(25994)
updateCurrDst(26047)
updateCurrDst(26139)
updateCurrDst(26162)
updateCurrDst(26289)
updateCurrDst(26379)
updateCurrDst(26463)
updateCurrDst(26488)
updateCurrDst(26502)
updateCurrDst(26608)
updateCurrDst(26686)
updateCurrDst(26884)
updateCurrDst(27084)
updateCurrDst(27097)
updateCurrDst(27561)
updateCurrDst(27656)
Heartbeat CPU 0 instructions: 16000003 cycles: 5265539 heartbeat IPC: 3.06538 cumulative IPC: 3.03863 (Simulation time: 0 hr 1 min 35 sec) 
updateCurrDst(27797)
updateCurrDst(27955)
updateCurrDst(27958)
updateCurrDst(28076)
updateCurrDst(28082)
updateCurrDst(28383)
updateCurrDst(28615)
updateCurrDst(28920)
updateCurrDst(29177)
updateCurrDst(29340)
updateCurrDst(29369)
updateCurrDst(29431)
updateCurrDst(29530)
updateCurrDst(29578)
updateCurrDst(29883)
updateCurrDst(29943)
updateCurrDst(29946)
updateCurrDst(29983)
updateCurrDst(30050)
updateCurrDst(30125)
updateCurrDst(30218)
Heartbeat CPU 0 instructions: 17000001 cycles: 5593489 heartbeat IPC: 3.04924 cumulative IPC: 3.03925 (Simulation time: 0 hr 1 min 42 sec) 
updateCurrDst(30695)
updateCurrDst(30724)
updateCurrDst(30842)
updateCurrDst(30885)
updateCurrDst(31062)
updateCurrDst(31117)
updateCurrDst(31566)
updateCurrDst(31747)
updateCurrDst(31844)
updateCurrDst(31848)
updateCurrDst(31928)
updateCurrDst(32128)
updateCurrDst(32170)
updateCurrDst(32185)
updateCurrDst(32219)
updateCurrDst(32264)
updateCurrDst(32331)
updateCurrDst(32336)
updateCurrDst(32379)
updateCurrDst(32424)
updateCurrDst(32462)
updateCurrDst(32790)
updateCurrDst(32802)
updateCurrDst(32839)
updateCurrDst(32842)
updateCurrDst(32923)
updateCurrDst(33200)
updateCurrDst(33203)
Heartbeat CPU 0 instructions: 18000001 cycles: 5921070 heartbeat IPC: 3.05268 cumulative IPC: 3.03999 (Simulation time: 0 hr 1 min 51 sec) 
updateCurrDst(33408)
updateCurrDst(33544)
updateCurrDst(33650)
updateCurrDst(33727)
updateCurrDst(33873)
updateCurrDst(34061)
updateCurrDst(34087)
updateCurrDst(34346)
updateCurrDst(34515)
updateCurrDst(34787)
updateCurrDst(34798)
updateCurrDst(34940)
updateCurrDst(35022)
updateCurrDst(35217)
updateCurrDst(35348)
updateCurrDst(35349)
updateCurrDst(35482)
updateCurrDst(35620)
updateCurrDst(35785)
updateCurrDst(35820)
updateCurrDst(35955)
updateCurrDst(35978)
Heartbeat CPU 0 instructions: 19000001 cycles: 6249640 heartbeat IPC: 3.04349 cumulative IPC: 3.04018 (Simulation time: 0 hr 1 min 59 sec) 
updateCurrDst(36022)
updateCurrDst(36055)
updateCurrDst(36217)
updateCurrDst(36383)
updateCurrDst(36439)
updateCurrDst(36632)
updateCurrDst(36730)
updateCurrDst(37060)
updateCurrDst(37084)
updateCurrDst(37150)
updateCurrDst(37216)
updateCurrDst(37271)
updateCurrDst(37562)
updateCurrDst(37574)
updateCurrDst(37575)
updateCurrDst(37716)
updateCurrDst(37835)
updateCurrDst(37855)
updateCurrDst(38049)
updateCurrDst(38077)
updateCurrDst(38162)
updateCurrDst(38222)
updateCurrDst(38252)
updateCurrDst(38277)
updateCurrDst(38358)
Heartbeat CPU 0 instructions: 20000000 cycles: 6574300 heartbeat IPC: 3.08014 cumulative IPC: 3.04215 (Simulation time: 0 hr 2 min 7 sec) 
updateCurrDst(38550)
updateCurrDst(38599)
updateCurrDst(38658)
updateCurrDst(38712)
updateCurrDst(39002)
updateCurrDst(39008)
updateCurrDst(39019)
updateCurrDst(39069)
updateCurrDst(39147)
updateCurrDst(39427)
updateCurrDst(39550)
updateCurrDst(39767)
updateCurrDst(39801)
updateCurrDst(39835)
updateCurrDst(40239)
updateCurrDst(40267)
updateCurrDst(40296)
updateCurrDst(40390)
updateCurrDst(40575)
updateCurrDst(40681)
Heartbeat CPU 0 instructions: 21000000 cycles: 6899857 heartbeat IPC: 3.07166 cumulative IPC: 3.04354 (Simulation time: 0 hr 2 min 14 sec) 
updateCurrDst(41030)
updateCurrDst(41067)
updateCurrDst(41168)
updateCurrDst(41296)
updateCurrDst(41305)
updateCurrDst(41327)
updateCurrDst(41509)
updateCurrDst(41527)
updateCurrDst(41766)
updateCurrDst(41802)
updateCurrDst(41855)
updateCurrDst(41898)
updateCurrDst(42016)
updateCurrDst(42172)
updateCurrDst(42219)
updateCurrDst(42228)
updateCurrDst(42236)
updateCurrDst(42238)
updateCurrDst(42239)
updateCurrDst(42255)
updateCurrDst(42551)
updateCurrDst(42598)
updateCurrDst(42831)
updateCurrDst(42834)
updateCurrDst(43001)
updateCurrDst(43073)
updateCurrDst(43160)
updateCurrDst(43248)
updateCurrDst(43289)
updateCurrDst(43406)
updateCurrDst(43437)
updateCurrDst(43481)
updateCurrDst(43531)
updateCurrDst(43546)
updateCurrDst(43707)
Heartbeat CPU 0 instructions: 22000000 cycles: 7227789 heartbeat IPC: 3.04941 cumulative IPC: 3.04381 (Simulation time: 0 hr 2 min 21 sec) 
updateCurrDst(43945)
updateCurrDst(43992)
updateCurrDst(44014)
updateCurrDst(44060)
updateCurrDst(44463)
updateCurrDst(44755)
updateCurrDst(44887)
updateCurrDst(44928)
updateCurrDst(45029)
updateCurrDst(45290)
updateCurrDst(45417)
updateCurrDst(45491)
updateCurrDst(45534)
updateCurrDst(45909)
updateCurrDst(45995)
updateCurrDst(46042)
updateCurrDst(46065)
updateCurrDst(46139)
updateCurrDst(46207)
updateCurrDst(46344)
updateCurrDst(46448)
updateCurrDst(46512)
Heartbeat CPU 0 instructions: 23000000 cycles: 7556908 heartbeat IPC: 3.03841 cumulative IPC: 3.04357 (Simulation time: 0 hr 2 min 29 sec) 
updateCurrDst(46626)
updateCurrDst(46629)
updateCurrDst(46651)
updateCurrDst(46703)
updateCurrDst(46873)
updateCurrDst(46946)
updateCurrDst(46985)
updateCurrDst(47039)
updateCurrDst(47069)
updateCurrDst(47081)
updateCurrDst(47270)
updateCurrDst(47276)
updateCurrDst(47522)
updateCurrDst(47572)
updateCurrDst(47608)
updateCurrDst(47651)
updateCurrDst(47703)
updateCurrDst(47710)
updateCurrDst(47892)
updateCurrDst(47901)
updateCurrDst(47948)
updateCurrDst(48065)
updateCurrDst(48091)
updateCurrDst(48116)
updateCurrDst(48189)
updateCurrDst(48200)
updateCurrDst(48209)
updateCurrDst(48267)
updateCurrDst(48358)
updateCurrDst(48378)
updateCurrDst(48714)
updateCurrDst(48792)
updateCurrDst(49217)
updateCurrDst(49243)
Heartbeat CPU 0 instructions: 24000002 cycles: 7888606 heartbeat IPC: 3.0148 cumulative IPC: 3.04236 (Simulation time: 0 hr 2 min 35 sec) 
updateCurrDst(49848)
updateCurrDst(49940)
updateCurrDst(50300)
updateCurrDst(50802)
updateCurrDst(50926)
updateCurrDst(51369)
updateCurrDst(51493)
updateCurrDst(51551)
updateCurrDst(51784)
updateCurrDst(52014)
updateCurrDst(52119)
Heartbeat CPU 0 instructions: 25000001 cycles: 8217812 heartbeat IPC: 3.03761 cumulative IPC: 3.04217 (Simulation time: 0 hr 2 min 42 sec) 
updateCurrDst(52640)
updateCurrDst(52981)
updateCurrDst(53234)
updateCurrDst(53270)
updateCurrDst(53394)
updateCurrDst(53546)
updateCurrDst(53597)
updateCurrDst(53749)
updateCurrDst(53825)
updateCurrDst(53906)
updateCurrDst(53946)
updateCurrDst(53969)
updateCurrDst(54129)
updateCurrDst(54155)
updateCurrDst(54405)
updateCurrDst(54409)
updateCurrDst(54441)
updateCurrDst(54470)
updateCurrDst(54473)
updateCurrDst(54579)
updateCurrDst(54585)
Heartbeat CPU 0 instructions: 26000000 cycles: 8539226 heartbeat IPC: 3.11125 cumulative IPC: 3.04477 (Simulation time: 0 hr 2 min 50 sec) 
updateCurrDst(54968)
updateCurrDst(55092)
updateCurrDst(55095)
updateCurrDst(55270)
updateCurrDst(55362)
updateCurrDst(55490)
updateCurrDst(55536)
updateCurrDst(55678)
updateCurrDst(55971)
updateCurrDst(56006)
updateCurrDst(56054)
updateCurrDst(56068)
updateCurrDst(56160)
updateCurrDst(56202)
updateCurrDst(56598)
updateCurrDst(56650)
updateCurrDst(56817)
updateCurrDst(56892)
updateCurrDst(57023)
updateCurrDst(57042)
updateCurrDst(57055)
updateCurrDst(57139)
updateCurrDst(57157)
Heartbeat CPU 0 instructions: 27000002 cycles: 8865270 heartbeat IPC: 3.06708 cumulative IPC: 3.04559 (Simulation time: 0 hr 2 min 57 sec) 
updateCurrDst(57237)
updateCurrDst(57263)
updateCurrDst(57455)
updateCurrDst(57638)
updateCurrDst(57685)
updateCurrDst(57774)
updateCurrDst(57811)
updateCurrDst(57871)
updateCurrDst(57988)
updateCurrDst(58063)
updateCurrDst(58198)
updateCurrDst(58610)
updateCurrDst(58643)
updateCurrDst(58713)
updateCurrDst(58893)
updateCurrDst(58907)
updateCurrDst(58947)
updateCurrDst(59234)
updateCurrDst(59308)
updateCurrDst(59452)
updateCurrDst(59490)
updateCurrDst(59562)
updateCurrDst(59573)
updateCurrDst(59600)
updateCurrDst(59671)
updateCurrDst(59738)
Heartbeat CPU 0 instructions: 28000001 cycles: 9191824 heartbeat IPC: 3.06228 cumulative IPC: 3.04619 (Simulation time: 0 hr 3 min 5 sec) 
updateCurrDst(59808)
updateCurrDst(59866)
updateCurrDst(59925)
updateCurrDst(60017)
updateCurrDst(60040)
updateCurrDst(60107)
updateCurrDst(60152)
updateCurrDst(60211)
updateCurrDst(60261)
updateCurrDst(60281)
updateCurrDst(60415)
updateCurrDst(60519)
updateCurrDst(60558)
updateCurrDst(60659)
updateCurrDst(60687)
updateCurrDst(60745)
updateCurrDst(60777)
updateCurrDst(60854)
updateCurrDst(60958)
updateCurrDst(61032)
updateCurrDst(61036)
updateCurrDst(61377)
updateCurrDst(61381)
updateCurrDst(61463)
updateCurrDst(61792)
updateCurrDst(61886)
updateCurrDst(61915)
updateCurrDst(62045)
updateCurrDst(62142)
updateCurrDst(62189)
updateCurrDst(62230)
updateCurrDst(62302)
updateCurrDst(62334)
updateCurrDst(62367)
updateCurrDst(62427)
updateCurrDst(62517)
Heartbeat CPU 0 instructions: 29000000 cycles: 9520537 heartbeat IPC: 3.04216 cumulative IPC: 3.04605 (Simulation time: 0 hr 3 min 13 sec) 
updateCurrDst(62827)
updateCurrDst(63043)
updateCurrDst(63253)
updateCurrDst(63298)
updateCurrDst(63324)
updateCurrDst(63343)
updateCurrDst(63658)
updateCurrDst(63663)
updateCurrDst(63753)
updateCurrDst(64441)
updateCurrDst(64834)
Heartbeat CPU 0 instructions: 30000002 cycles: 9849241 heartbeat IPC: 3.04226 cumulative IPC: 3.04592 (Simulation time: 0 hr 3 min 19 sec) 
updateCurrDst(65359)
updateCurrDst(65451)
updateCurrDst(65475)
updateCurrDst(65633)
updateCurrDst(65754)
updateCurrDst(65920)
updateCurrDst(66298)
updateCurrDst(66341)
updateCurrDst(66479)
updateCurrDst(66532)
updateCurrDst(66624)
updateCurrDst(66708)
updateCurrDst(66869)
updateCurrDst(66970)
updateCurrDst(67177)
updateCurrDst(67212)
updateCurrDst(67276)
updateCurrDst(67408)
updateCurrDst(67516)
updateCurrDst(67520)
updateCurrDst(67622)
updateCurrDst(67661)
updateCurrDst(67712)
Heartbeat CPU 0 instructions: 31000000 cycles: 10174136 heartbeat IPC: 3.07791 cumulative IPC: 3.04694 (Simulation time: 0 hr 3 min 27 sec) 
updateCurrDst(67853)
updateCurrDst(67882)
updateCurrDst(68087)
updateCurrDst(68162)
updateCurrDst(68207)
updateCurrDst(68282)
updateCurrDst(68307)
updateCurrDst(68383)
updateCurrDst(68404)
updateCurrDst(68431)
updateCurrDst(68487)
updateCurrDst(68488)
updateCurrDst(68602)
updateCurrDst(68767)
updateCurrDst(68803)
updateCurrDst(68830)
updateCurrDst(68833)
updateCurrDst(68878)
updateCurrDst(68893)
updateCurrDst(68896)
updateCurrDst(68964)
updateCurrDst(69106)
updateCurrDst(69123)
updateCurrDst(69135)
updateCurrDst(69232)
updateCurrDst(69430)
updateCurrDst(69476)
updateCurrDst(69734)
updateCurrDst(69748)
updateCurrDst(70087)
Heartbeat CPU 0 instructions: 32000001 cycles: 10498699 heartbeat IPC: 3.08107 cumulative IPC: 3.048 (Simulation time: 0 hr 3 min 34 sec) 
updateCurrDst(70375)
updateCurrDst(70649)
updateCurrDst(70707)
updateCurrDst(70814)
updateCurrDst(70873)
updateCurrDst(70939)
updateCurrDst(70987)
updateCurrDst(71022)
updateCurrDst(71108)
updateCurrDst(71316)
updateCurrDst(71592)
updateCurrDst(71624)
updateCurrDst(71666)
updateCurrDst(71696)
updateCurrDst(71793)
updateCurrDst(72031)
updateCurrDst(72162)
updateCurrDst(72465)
updateCurrDst(72666)
updateCurrDst(72692)
updateCurrDst(72696)
updateCurrDst(72773)
updateCurrDst(72816)
updateCurrDst(72875)
Heartbeat CPU 0 instructions: 33000000 cycles: 10826495 heartbeat IPC: 3.05067 cumulative IPC: 3.04808 (Simulation time: 0 hr 3 min 41 sec) 
updateCurrDst(73045)
updateCurrDst(73323)
updateCurrDst(73385)
updateCurrDst(73544)
updateCurrDst(73675)
updateCurrDst(73788)
updateCurrDst(73829)
updateCurrDst(73858)
updateCurrDst(74040)
updateCurrDst(74343)
updateCurrDst(74355)
updateCurrDst(74442)
updateCurrDst(74447)
updateCurrDst(74454)
updateCurrDst(74515)
updateCurrDst(74521)
updateCurrDst(74549)
updateCurrDst(74788)
updateCurrDst(75079)
updateCurrDst(75097)
updateCurrDst(75118)
updateCurrDst(75159)
updateCurrDst(75195)
updateCurrDst(75282)
updateCurrDst(75566)
updateCurrDst(75609)
updateCurrDst(75706)
Heartbeat CPU 0 instructions: 34000000 cycles: 11154766 heartbeat IPC: 3.04626 cumulative IPC: 3.04802 (Simulation time: 0 hr 3 min 48 sec) 
updateCurrDst(75725)
updateCurrDst(75747)
updateCurrDst(75825)
updateCurrDst(75828)
updateCurrDst(75991)
updateCurrDst(76045)
updateCurrDst(76171)
updateCurrDst(76207)
updateCurrDst(76296)
updateCurrDst(76407)
updateCurrDst(76746)
updateCurrDst(76766)
updateCurrDst(76839)
updateCurrDst(76874)
updateCurrDst(76918)
updateCurrDst(77109)
updateCurrDst(77134)
updateCurrDst(77147)
updateCurrDst(77321)
updateCurrDst(77515)
updateCurrDst(77564)
updateCurrDst(77708)
updateCurrDst(77815)
updateCurrDst(77847)
updateCurrDst(78070)
updateCurrDst(78141)
updateCurrDst(78179)
updateCurrDst(78198)
updateCurrDst(78250)
updateCurrDst(78275)
updateCurrDst(78482)
Heartbeat CPU 0 instructions: 35000000 cycles: 11483683 heartbeat IPC: 3.04028 cumulative IPC: 3.0478 (Simulation time: 0 hr 3 min 54 sec) 
updateCurrDst(78820)
updateCurrDst(78861)
updateCurrDst(78962)
updateCurrDst(79079)
updateCurrDst(79085)
updateCurrDst(79310)
updateCurrDst(79363)
updateCurrDst(79416)
updateCurrDst(79455)
updateCurrDst(79615)
updateCurrDst(79640)
updateCurrDst(79710)
updateCurrDst(79743)
updateCurrDst(79799)
updateCurrDst(79937)
updateCurrDst(80018)
updateCurrDst(80220)
updateCurrDst(80231)
updateCurrDst(80265)
updateCurrDst(80399)
updateCurrDst(80414)
updateCurrDst(80510)
updateCurrDst(80518)
updateCurrDst(80633)
updateCurrDst(80650)
updateCurrDst(80722)
updateCurrDst(80816)
Heartbeat CPU 0 instructions: 36000000 cycles: 11806824 heartbeat IPC: 3.09462 cumulative IPC: 3.04908 (Simulation time: 0 hr 4 min 2 sec) 
updateCurrDst(80877)
updateCurrDst(81012)
updateCurrDst(81150)
updateCurrDst(81245)
updateCurrDst(81563)
updateCurrDst(81692)
updateCurrDst(81754)
updateCurrDst(81869)
updateCurrDst(81990)
updateCurrDst(82042)
updateCurrDst(82122)
updateCurrDst(82161)
updateCurrDst(82185)
updateCurrDst(82208)
updateCurrDst(82284)
updateCurrDst(82693)
updateCurrDst(82723)
updateCurrDst(82861)
updateCurrDst(82910)
updateCurrDst(82982)
updateCurrDst(83066)
updateCurrDst(83233)
updateCurrDst(83310)
updateCurrDst(83466)
updateCurrDst(83471)
Heartbeat CPU 0 instructions: 37000002 cycles: 12133961 heartbeat IPC: 3.05683 cumulative IPC: 3.04929 (Simulation time: 0 hr 4 min 9 sec) 
updateCurrDst(83532)
updateCurrDst(83659)
updateCurrDst(83759)
updateCurrDst(83879)
updateCurrDst(83997)
updateCurrDst(84096)
updateCurrDst(84221)
updateCurrDst(84382)
updateCurrDst(84394)
updateCurrDst(84431)
updateCurrDst(84732)
updateCurrDst(84818)
updateCurrDst(84828)
updateCurrDst(84909)
updateCurrDst(84928)
updateCurrDst(85028)
updateCurrDst(85202)
updateCurrDst(85246)
updateCurrDst(85266)
updateCurrDst(85272)
updateCurrDst(85565)
updateCurrDst(85842)
updateCurrDst(85936)
updateCurrDst(86021)
updateCurrDst(86119)
Heartbeat CPU 0 instructions: 38000000 cycles: 12461973 heartbeat IPC: 3.04866 cumulative IPC: 3.04928 (Simulation time: 0 hr 4 min 15 sec) 
updateCurrDst(86245)
updateCurrDst(86450)
updateCurrDst(86497)
updateCurrDst(86911)
updateCurrDst(86919)
updateCurrDst(86936)
updateCurrDst(86991)
updateCurrDst(87142)
updateCurrDst(87183)
updateCurrDst(87307)
updateCurrDst(87335)
updateCurrDst(87438)
updateCurrDst(87460)
updateCurrDst(87475)
updateCurrDst(87610)
updateCurrDst(87693)
updateCurrDst(87949)
updateCurrDst(88050)
updateCurrDst(88220)
updateCurrDst(88319)
updateCurrDst(88336)
updateCurrDst(88375)
updateCurrDst(88387)
updateCurrDst(88520)
Heartbeat CPU 0 instructions: 39000000 cycles: 12786779 heartbeat IPC: 3.07876 cumulative IPC: 3.05003 (Simulation time: 0 hr 4 min 23 sec) 
updateCurrDst(88801)
updateCurrDst(88809)
updateCurrDst(88822)
updateCurrDst(88887)
updateCurrDst(89012)
updateCurrDst(89247)
updateCurrDst(89396)
updateCurrDst(89495)
updateCurrDst(89792)
updateCurrDst(89874)
updateCurrDst(90072)
updateCurrDst(90244)
updateCurrDst(90248)
updateCurrDst(90307)
updateCurrDst(90317)
updateCurrDst(90337)
updateCurrDst(90502)
updateCurrDst(90543)
updateCurrDst(90696)
updateCurrDst(90699)
updateCurrDst(90711)
updateCurrDst(90803)
updateCurrDst(90812)
updateCurrDst(90858)
updateCurrDst(90897)
updateCurrDst(90986)
updateCurrDst(91321)
updateCurrDst(91323)
updateCurrDst(91442)
updateCurrDst(91444)
updateCurrDst(91487)
updateCurrDst(91510)
updateCurrDst(91704)
updateCurrDst(91718)
Heartbeat CPU 0 instructions: 40000003 cycles: 13118507 heartbeat IPC: 3.01453 cumulative IPC: 3.04913 (Simulation time: 0 hr 4 min 30 sec) 
updateCurrDst(91927)
updateCurrDst(91998)
updateCurrDst(92018)
updateCurrDst(92105)
updateCurrDst(92130)
updateCurrDst(92166)
updateCurrDst(92222)
updateCurrDst(92231)
updateCurrDst(92247)
updateCurrDst(92461)
updateCurrDst(92783)
updateCurrDst(92885)
updateCurrDst(92891)
updateCurrDst(92947)
updateCurrDst(93240)
updateCurrDst(93370)
updateCurrDst(93553)
updateCurrDst(93657)
updateCurrDst(93731)
updateCurrDst(93779)
updateCurrDst(93782)
updateCurrDst(93810)
updateCurrDst(93846)
updateCurrDst(93891)
updateCurrDst(94024)
updateCurrDst(94149)
updateCurrDst(94223)
updateCurrDst(94237)
updateCurrDst(94655)
Heartbeat CPU 0 instructions: 41000003 cycles: 13448667 heartbeat IPC: 3.02883 cumulative IPC: 3.04863 (Simulation time: 0 hr 4 min 36 sec) 
updateCurrDst(94816)
updateCurrDst(94867)
updateCurrDst(94887)
updateCurrDst(94904)
updateCurrDst(95025)
updateCurrDst(95072)
updateCurrDst(95376)
updateCurrDst(95425)
updateCurrDst(95443)
updateCurrDst(95504)
updateCurrDst(95521)
updateCurrDst(95594)
updateCurrDst(95798)
updateCurrDst(95858)
updateCurrDst(95975)
updateCurrDst(96274)
updateCurrDst(96279)
updateCurrDst(96287)
updateCurrDst(96336)
updateCurrDst(96415)
updateCurrDst(96432)
updateCurrDst(96609)
updateCurrDst(96754)
updateCurrDst(96823)
updateCurrDst(97051)
Heartbeat CPU 0 instructions: 42000000 cycles: 13774401 heartbeat IPC: 3.06998 cumulative IPC: 3.04913 (Simulation time: 0 hr 4 min 42 sec) 
updateCurrDst(97211)
updateCurrDst(97290)
updateCurrDst(97351)
updateCurrDst(97718)
updateCurrDst(97907)
updateCurrDst(97970)
updateCurrDst(98212)
updateCurrDst(98316)
updateCurrDst(98350)
updateCurrDst(98359)
updateCurrDst(98413)
updateCurrDst(98504)
updateCurrDst(98673)
updateCurrDst(98835)
updateCurrDst(99078)
updateCurrDst(99115)
updateCurrDst(99178)
updateCurrDst(99236)
updateCurrDst(99329)
updateCurrDst(99331)
updateCurrDst(99337)
updateCurrDst(99503)
updateCurrDst(99596)
updateCurrDst(99613)
updateCurrDst(99621)
updateCurrDst(99645)
updateCurrDst(99661)
updateCurrDst(99691)
updateCurrDst(99736)
Heartbeat CPU 0 instructions: 43000000 cycles: 14101288 heartbeat IPC: 3.05916 cumulative IPC: 3.04937 (Simulation time: 0 hr 4 min 49 sec) 
updateCurrDst(99916)
updateCurrDst(99938)
updateCurrDst(99960)
updateCurrDst(100010)
updateCurrDst(100081)
updateCurrDst(100113)
updateCurrDst(100116)
updateCurrDst(100146)
updateCurrDst(100171)
updateCurrDst(100256)
updateCurrDst(100346)
updateCurrDst(100390)
updateCurrDst(100422)
updateCurrDst(100551)
updateCurrDst(100763)
updateCurrDst(100970)
updateCurrDst(101051)
updateCurrDst(101108)
updateCurrDst(101109)
updateCurrDst(101348)
updateCurrDst(101385)
updateCurrDst(101479)
updateCurrDst(101573)
updateCurrDst(101676)
updateCurrDst(101811)
updateCurrDst(101825)
updateCurrDst(101888)
updateCurrDst(101926)
updateCurrDst(101942)
updateCurrDst(102048)
updateCurrDst(102295)
updateCurrDst(102301)
updateCurrDst(102346)
updateCurrDst(102348)
updateCurrDst(102470)
Heartbeat CPU 0 instructions: 44000000 cycles: 14428390 heartbeat IPC: 3.05715 cumulative IPC: 3.04954 (Simulation time: 0 hr 4 min 56 sec) 
updateCurrDst(102596)
updateCurrDst(102657)
updateCurrDst(102664)
updateCurrDst(102963)
updateCurrDst(103002)
updateCurrDst(103064)
updateCurrDst(103114)
updateCurrDst(103168)
updateCurrDst(103190)
updateCurrDst(103300)
updateCurrDst(103418)
updateCurrDst(103485)
updateCurrDst(103510)
updateCurrDst(103570)
updateCurrDst(103644)
updateCurrDst(103744)
updateCurrDst(103746)
updateCurrDst(103797)
updateCurrDst(103834)
updateCurrDst(103947)
updateCurrDst(103966)
updateCurrDst(103973)
updateCurrDst(104040)
updateCurrDst(104050)
updateCurrDst(104090)
updateCurrDst(104341)
updateCurrDst(104461)
updateCurrDst(104483)
updateCurrDst(104577)
updateCurrDst(104779)
Heartbeat CPU 0 instructions: 45000001 cycles: 14751774 heartbeat IPC: 3.0923 cumulative IPC: 3.05048 (Simulation time: 0 hr 5 min 4 sec) 
updateCurrDst(104918)
updateCurrDst(105014)
updateCurrDst(105044)
updateCurrDst(105201)
updateCurrDst(105523)
updateCurrDst(105526)
updateCurrDst(105652)
updateCurrDst(105698)
updateCurrDst(105758)
updateCurrDst(105857)
updateCurrDst(105893)
updateCurrDst(105981)
updateCurrDst(106045)
updateCurrDst(106178)
updateCurrDst(106204)
updateCurrDst(106404)
updateCurrDst(106552)
updateCurrDst(106585)
updateCurrDst(106697)
updateCurrDst(106703)
updateCurrDst(106748)
updateCurrDst(106793)
updateCurrDst(106892)
updateCurrDst(107054)
updateCurrDst(107199)
updateCurrDst(107323)
updateCurrDst(107424)
Heartbeat CPU 0 instructions: 46000000 cycles: 15080378 heartbeat IPC: 3.04317 cumulative IPC: 3.05032 (Simulation time: 0 hr 5 min 11 sec) 
updateCurrDst(107879)
updateCurrDst(107958)
updateCurrDst(108052)
updateCurrDst(108132)
updateCurrDst(108142)
updateCurrDst(108244)
updateCurrDst(108393)
updateCurrDst(108488)
updateCurrDst(108569)
updateCurrDst(108910)
updateCurrDst(108983)
updateCurrDst(109086)
updateCurrDst(109107)
updateCurrDst(109447)
updateCurrDst(109448)
updateCurrDst(109482)
updateCurrDst(109633)
updateCurrDst(109643)
updateCurrDst(109711)
updateCurrDst(110020)
updateCurrDst(110048)
updateCurrDst(110124)
updateCurrDst(110211)
updateCurrDst(110260)
updateCurrDst(110441)
Heartbeat CPU 0 instructions: 47000003 cycles: 15409473 heartbeat IPC: 3.03865 cumulative IPC: 3.05007 (Simulation time: 0 hr 5 min 20 sec) 
updateCurrDst(110536)
updateCurrDst(110638)
updateCurrDst(110667)
updateCurrDst(110673)
updateCurrDst(110745)
updateCurrDst(110793)
updateCurrDst(110813)
updateCurrDst(110826)
updateCurrDst(110867)
updateCurrDst(110922)
updateCurrDst(110927)
updateCurrDst(111139)
updateCurrDst(111210)
updateCurrDst(111257)
updateCurrDst(111462)
updateCurrDst(111595)
updateCurrDst(111614)
updateCurrDst(111703)
updateCurrDst(112059)
updateCurrDst(112086)
updateCurrDst(112263)
updateCurrDst(112512)
updateCurrDst(112550)
updateCurrDst(112567)
updateCurrDst(112568)
updateCurrDst(112782)
updateCurrDst(113100)
updateCurrDst(113148)
updateCurrDst(113287)
Heartbeat CPU 0 instructions: 48000002 cycles: 15739178 heartbeat IPC: 3.03301 cumulative IPC: 3.04971 (Simulation time: 0 hr 5 min 27 sec) 
updateCurrDst(113913)
updateCurrDst(113937)
updateCurrDst(114085)
updateCurrDst(114150)
updateCurrDst(114182)
updateCurrDst(114217)
updateCurrDst(114304)
updateCurrDst(114337)
updateCurrDst(114517)
updateCurrDst(114735)
updateCurrDst(114823)
updateCurrDst(114957)
updateCurrDst(115145)
updateCurrDst(115329)
updateCurrDst(115491)
updateCurrDst(115537)
updateCurrDst(115556)
updateCurrDst(115638)
updateCurrDst(115675)
updateCurrDst(115712)
updateCurrDst(115783)
Heartbeat CPU 0 instructions: 49000001 cycles: 16065284 heartbeat IPC: 3.06648 cumulative IPC: 3.05006 (Simulation time: 0 hr 5 min 37 sec) 
updateCurrDst(116009)
updateCurrDst(116154)
updateCurrDst(116584)
updateCurrDst(116735)
updateCurrDst(116850)
updateCurrDst(116863)
updateCurrDst(117046)
updateCurrDst(117107)
updateCurrDst(117117)
updateCurrDst(117168)
updateCurrDst(117222)
updateCurrDst(117252)
updateCurrDst(117259)
updateCurrDst(117473)
updateCurrDst(117566)
updateCurrDst(117607)
updateCurrDst(117682)
updateCurrDst(117782)
updateCurrDst(117881)
updateCurrDst(117897)
updateCurrDst(117999)
updateCurrDst(118006)
updateCurrDst(118035)
updateCurrDst(118072)
updateCurrDst(118342)
updateCurrDst(118459)
updateCurrDst(118466)
Heartbeat CPU 0 instructions: 50000002 cycles: 16392920 heartbeat IPC: 3.05217 cumulative IPC: 3.0501 (Simulation time: 0 hr 5 min 45 sec) 

Warmup complete CPU 0 instructions: 50000002 cycles: 16392920 (Simulation time: 0 hr 5 min 45 sec) 

updateCurrDst(118749)
updateCurrDst(118810)
updateCurrDst(118818)
updateCurrDst(118854)
updateCurrDst(118876)
updateCurrDst(118880)
updateCurrDst(118987)
updateCurrDst(119193)
updateCurrDst(119215)
updateCurrDst(119245)
updateCurrDst(119248)
updateCurrDst(119342)
updateCurrDst(119755)
updateCurrDst(119884)
updateCurrDst(119934)
updateCurrDst(120172)
updateCurrDst(120351)
updateCurrDst(120463)
updateCurrDst(120478)
updateCurrDst(120817)
updateCurrDst(120834)
updateCurrDst(121035)
updateCurrDst(121081)
Heartbeat CPU 0 instructions: 51000000 cycles: 19428061 heartbeat IPC: 0.329473 cumulative IPC: 0.329473 (Simulation time: 0 hr 5 min 52 sec) 
updateCurrDst(121361)
updateCurrDst(121363)
updateCurrDst(121389)
updateCurrDst(121402)
updateCurrDst(121492)
updateCurrDst(121566)
updateCurrDst(121610)
updateCurrDst(121655)
updateCurrDst(121776)
updateCurrDst(121798)
updateCurrDst(121809)
updateCurrDst(122015)
updateCurrDst(122019)
updateCurrDst(122026)
updateCurrDst(122056)
updateCurrDst(122137)
updateCurrDst(122305)
updateCurrDst(122308)
updateCurrDst(122368)
updateCurrDst(122455)
updateCurrDst(122512)
updateCurrDst(122530)
updateCurrDst(122704)
updateCurrDst(122721)
updateCurrDst(122729)
updateCurrDst(122757)
updateCurrDst(122792)
updateCurrDst(122810)
updateCurrDst(123053)
updateCurrDst(123102)
updateCurrDst(123171)
updateCurrDst(123273)
updateCurrDst(123415)
updateCurrDst(123434)
updateCurrDst(123461)
Heartbeat CPU 0 instructions: 52000002 cycles: 22463866 heartbeat IPC: 0.329403 cumulative IPC: 0.329438 (Simulation time: 0 hr 6 min 1 sec) 
updateCurrDst(123768)
updateCurrDst(123780)
updateCurrDst(123942)
updateCurrDst(123965)
updateCurrDst(123980)
updateCurrDst(124029)
updateCurrDst(124103)
updateCurrDst(124187)
updateCurrDst(124783)
updateCurrDst(124840)
updateCurrDst(124854)
updateCurrDst(124937)
updateCurrDst(124944)
updateCurrDst(125154)
updateCurrDst(125175)
updateCurrDst(125272)
updateCurrDst(125317)
updateCurrDst(125329)
updateCurrDst(125400)
updateCurrDst(125452)
updateCurrDst(125462)
updateCurrDst(125656)
updateCurrDst(125826)
updateCurrDst(126016)
updateCurrDst(126172)
updateCurrDst(126216)
Heartbeat CPU 0 instructions: 53000000 cycles: 25476427 heartbeat IPC: 0.331943 cumulative IPC: 0.330269 (Simulation time: 0 hr 6 min 9 sec) 
updateCurrDst(126394)
updateCurrDst(126449)
updateCurrDst(126484)
updateCurrDst(126514)
updateCurrDst(126520)
updateCurrDst(126541)
updateCurrDst(126588)
updateCurrDst(126614)
updateCurrDst(126888)
updateCurrDst(126986)
updateCurrDst(127005)
updateCurrDst(127009)
updateCurrDst(127038)
updateCurrDst(127039)
updateCurrDst(127192)
updateCurrDst(127237)
updateCurrDst(127258)
updateCurrDst(127592)
updateCurrDst(127877)
updateCurrDst(127892)
updateCurrDst(128005)
updateCurrDst(128133)
updateCurrDst(128432)
updateCurrDst(128651)
updateCurrDst(128665)
updateCurrDst(128749)
updateCurrDst(128750)
updateCurrDst(128756)
updateCurrDst(128815)
updateCurrDst(128852)
Heartbeat CPU 0 instructions: 54000000 cycles: 28488405 heartbeat IPC: 0.332008 cumulative IPC: 0.330702 (Simulation time: 0 hr 6 min 18 sec) 
updateCurrDst(128966)
updateCurrDst(129291)
updateCurrDst(129361)
updateCurrDst(129380)
updateCurrDst(129390)
updateCurrDst(129482)
updateCurrDst(129514)
updateCurrDst(129653)
updateCurrDst(129662)
updateCurrDst(129743)
updateCurrDst(130023)
updateCurrDst(130070)
updateCurrDst(130103)
updateCurrDst(130164)
updateCurrDst(130286)
updateCurrDst(130331)
updateCurrDst(130360)
updateCurrDst(130449)
updateCurrDst(130502)
updateCurrDst(130505)
updateCurrDst(130597)
updateCurrDst(130749)
updateCurrDst(131343)
updateCurrDst(131363)
updateCurrDst(131464)
Heartbeat CPU 0 instructions: 55000000 cycles: 31521082 heartbeat IPC: 0.329742 cumulative IPC: 0.330509 (Simulation time: 0 hr 6 min 25 sec) 
updateCurrDst(131566)
updateCurrDst(131674)
updateCurrDst(131714)
updateCurrDst(131837)
updateCurrDst(132017)
updateCurrDst(132118)
updateCurrDst(132172)
updateCurrDst(132319)
updateCurrDst(132416)
updateCurrDst(132743)
updateCurrDst(132820)
updateCurrDst(132861)
updateCurrDst(133038)
updateCurrDst(133044)
updateCurrDst(133222)
updateCurrDst(133321)
updateCurrDst(133411)
updateCurrDst(133441)
updateCurrDst(133544)
updateCurrDst(133571)
updateCurrDst(133658)
updateCurrDst(133663)
updateCurrDst(133712)
updateCurrDst(133825)
updateCurrDst(133898)
updateCurrDst(134052)
Heartbeat CPU 0 instructions: 56000001 cycles: 34531629 heartbeat IPC: 0.332166 cumulative IPC: 0.330784 (Simulation time: 0 hr 6 min 33 sec) 
updateCurrDst(134434)
updateCurrDst(134517)
updateCurrDst(134529)
updateCurrDst(134562)
updateCurrDst(134608)
updateCurrDst(134633)
updateCurrDst(134995)
updateCurrDst(135000)
updateCurrDst(135019)
updateCurrDst(135275)
updateCurrDst(135452)
updateCurrDst(135477)
updateCurrDst(135520)
updateCurrDst(135708)
updateCurrDst(135813)
updateCurrDst(136040)
updateCurrDst(136375)
Heartbeat CPU 0 instructions: 57000002 cycles: 37577119 heartbeat IPC: 0.328355 cumulative IPC: 0.330435 (Simulation time: 0 hr 6 min 42 sec) 
updateCurrDst(136670)
updateCurrDst(136930)
updateCurrDst(137120)
updateCurrDst(137284)
updateCurrDst(137292)
updateCurrDst(137396)
updateCurrDst(137403)
updateCurrDst(137492)
updateCurrDst(137506)
updateCurrDst(137578)
updateCurrDst(137611)
updateCurrDst(137723)
updateCurrDst(137727)
updateCurrDst(137738)
updateCurrDst(138103)
updateCurrDst(138328)
updateCurrDst(138376)
updateCurrDst(138927)
updateCurrDst(139037)
updateCurrDst(139045)
updateCurrDst(139066)
updateCurrDst(139166)
updateCurrDst(139171)
updateCurrDst(139200)
updateCurrDst(139254)
Heartbeat CPU 0 instructions: 58000001 cycles: 40591167 heartbeat IPC: 0.331779 cumulative IPC: 0.330602 (Simulation time: 0 hr 6 min 50 sec) 
updateCurrDst(139699)
updateCurrDst(139738)
updateCurrDst(139906)
updateCurrDst(140035)
updateCurrDst(140118)
updateCurrDst(140185)
updateCurrDst(140208)
updateCurrDst(140283)
updateCurrDst(140352)
updateCurrDst(140558)
updateCurrDst(140573)
updateCurrDst(140775)
updateCurrDst(140821)
updateCurrDst(140832)
updateCurrDst(140835)
updateCurrDst(141122)
updateCurrDst(141248)
updateCurrDst(141315)
updateCurrDst(141376)
updateCurrDst(141417)
updateCurrDst(141440)
updateCurrDst(141614)
updateCurrDst(141652)
updateCurrDst(141744)
updateCurrDst(141773)
updateCurrDst(141888)
updateCurrDst(141912)
updateCurrDst(142179)
updateCurrDst(142311)
updateCurrDst(142322)
Heartbeat CPU 0 instructions: 59000001 cycles: 43589576 heartbeat IPC: 0.33351 cumulative IPC: 0.330923 (Simulation time: 0 hr 6 min 59 sec) 
updateCurrDst(142368)
updateCurrDst(142716)
updateCurrDst(142717)
updateCurrDst(142768)
updateCurrDst(142922)
updateCurrDst(143082)
updateCurrDst(143137)
updateCurrDst(143148)
updateCurrDst(143170)
updateCurrDst(143296)
updateCurrDst(143343)
updateCurrDst(143474)
updateCurrDst(143512)
updateCurrDst(143604)
updateCurrDst(143626)
updateCurrDst(143673)
updateCurrDst(143674)
updateCurrDst(143812)
updateCurrDst(143831)
updateCurrDst(143858)
updateCurrDst(143948)
updateCurrDst(144021)
updateCurrDst(144057)
updateCurrDst(144090)
updateCurrDst(144220)
updateCurrDst(144523)
updateCurrDst(144535)
Heartbeat CPU 0 instructions: 60000001 cycles: 46629258 heartbeat IPC: 0.328982 cumulative IPC: 0.330728 (Simulation time: 0 hr 7 min 8 sec) 
updateCurrDst(145069)
updateCurrDst(145208)
updateCurrDst(145285)
updateCurrDst(145356)
updateCurrDst(145437)
updateCurrDst(145457)
updateCurrDst(145515)
updateCurrDst(145682)
updateCurrDst(145731)
updateCurrDst(145990)
updateCurrDst(146023)
updateCurrDst(146095)
updateCurrDst(146168)
updateCurrDst(146392)
updateCurrDst(146490)
updateCurrDst(146529)
updateCurrDst(146547)
updateCurrDst(146815)
updateCurrDst(146839)
updateCurrDst(146845)
updateCurrDst(146966)
updateCurrDst(147160)
updateCurrDst(147302)
updateCurrDst(147507)
Heartbeat CPU 0 instructions: 61000000 cycles: 49623248 heartbeat IPC: 0.334002 cumulative IPC: 0.331023 (Simulation time: 0 hr 7 min 18 sec) 
updateCurrDst(148068)
updateCurrDst(148269)
updateCurrDst(148502)
updateCurrDst(148518)
updateCurrDst(148602)
updateCurrDst(148631)
updateCurrDst(148719)
updateCurrDst(148741)
updateCurrDst(148834)
updateCurrDst(149076)
updateCurrDst(149187)
updateCurrDst(149196)
updateCurrDst(149284)
updateCurrDst(149314)
updateCurrDst(149475)
updateCurrDst(149482)
updateCurrDst(149488)
updateCurrDst(149659)
updateCurrDst(149700)
updateCurrDst(149747)
updateCurrDst(149887)
updateCurrDst(149892)
updateCurrDst(150110)
updateCurrDst(150157)
Heartbeat CPU 0 instructions: 62000002 cycles: 52661631 heartbeat IPC: 0.329123 cumulative IPC: 0.330864 (Simulation time: 0 hr 7 min 26 sec) 
updateCurrDst(150234)
updateCurrDst(150288)
updateCurrDst(150398)
updateCurrDst(150463)
updateCurrDst(150525)
updateCurrDst(150529)
updateCurrDst(150764)
updateCurrDst(150776)
updateCurrDst(150823)
updateCurrDst(150872)
updateCurrDst(150935)
updateCurrDst(150936)
updateCurrDst(150943)
updateCurrDst(151071)
updateCurrDst(151087)
updateCurrDst(151139)
updateCurrDst(151144)
updateCurrDst(151236)
updateCurrDst(151334)
updateCurrDst(151459)
updateCurrDst(151899)
updateCurrDst(151902)
updateCurrDst(152041)
updateCurrDst(152376)
updateCurrDst(152422)
updateCurrDst(152452)
updateCurrDst(152679)
updateCurrDst(152725)
updateCurrDst(152833)
Heartbeat CPU 0 instructions: 63000002 cycles: 55676887 heartbeat IPC: 0.331647 cumulative IPC: 0.330924 (Simulation time: 0 hr 7 min 37 sec) 
updateCurrDst(153068)
updateCurrDst(153183)
updateCurrDst(153250)
updateCurrDst(153385)
updateCurrDst(153552)
updateCurrDst(153557)
updateCurrDst(153597)
updateCurrDst(153645)
updateCurrDst(153668)
updateCurrDst(153721)
updateCurrDst(153780)
updateCurrDst(153811)
updateCurrDst(153929)
updateCurrDst(153986)
updateCurrDst(154109)
updateCurrDst(154127)
updateCurrDst(154392)
updateCurrDst(154457)
updateCurrDst(154580)
updateCurrDst(154629)
updateCurrDst(154655)
updateCurrDst(154913)
updateCurrDst(154920)
updateCurrDst(155021)
updateCurrDst(155218)
updateCurrDst(155233)
updateCurrDst(155304)
updateCurrDst(155424)
updateCurrDst(155432)
Heartbeat CPU 0 instructions: 64000000 cycles: 58692542 heartbeat IPC: 0.331602 cumulative IPC: 0.330972 (Simulation time: 0 hr 7 min 44 sec) 
updateCurrDst(155796)
updateCurrDst(155800)
updateCurrDst(155919)
updateCurrDst(156009)
updateCurrDst(156148)
updateCurrDst(156233)
updateCurrDst(156266)
updateCurrDst(156268)
updateCurrDst(156288)
updateCurrDst(156402)
updateCurrDst(156537)
updateCurrDst(156747)
updateCurrDst(156984)
updateCurrDst(156996)
updateCurrDst(157219)
updateCurrDst(157478)
updateCurrDst(157507)
updateCurrDst(157745)
updateCurrDst(157772)
updateCurrDst(157808)
updateCurrDst(157920)
updateCurrDst(157938)
Heartbeat CPU 0 instructions: 65000001 cycles: 61742485 heartbeat IPC: 0.327875 cumulative IPC: 0.330764 (Simulation time: 0 hr 7 min 53 sec) 
updateCurrDst(158017)
updateCurrDst(158051)
updateCurrDst(158073)
updateCurrDst(158089)
updateCurrDst(158116)
updateCurrDst(158140)
updateCurrDst(158151)
updateCurrDst(158334)
updateCurrDst(158413)
updateCurrDst(158650)
updateCurrDst(158910)
updateCurrDst(158928)
updateCurrDst(158930)
updateCurrDst(159043)
updateCurrDst(159075)
updateCurrDst(159103)
updateCurrDst(159201)
updateCurrDst(159292)
updateCurrDst(159617)
updateCurrDst(159743)
updateCurrDst(159803)
updateCurrDst(159827)
updateCurrDst(159870)
updateCurrDst(160026)
updateCurrDst(160183)
updateCurrDst(160476)
updateCurrDst(160690)
updateCurrDst(160757)
updateCurrDst(160773)
Heartbeat CPU 0 instructions: 66000000 cycles: 64746493 heartbeat IPC: 0.332888 cumulative IPC: 0.330896 (Simulation time: 0 hr 8 min 2 sec) 
updateCurrDst(161135)
updateCurrDst(161143)
updateCurrDst(161179)
updateCurrDst(161226)
updateCurrDst(161245)
updateCurrDst(161301)
updateCurrDst(161302)
updateCurrDst(161346)
updateCurrDst(161496)
updateCurrDst(161501)
updateCurrDst(161558)
updateCurrDst(161632)
updateCurrDst(161971)
updateCurrDst(162035)
updateCurrDst(162078)
updateCurrDst(162362)
updateCurrDst(162410)
updateCurrDst(162458)
updateCurrDst(162482)
updateCurrDst(162641)
updateCurrDst(162890)
updateCurrDst(163252)
updateCurrDst(163288)
updateCurrDst(163326)
Heartbeat CPU 0 instructions: 67000000 cycles: 67778143 heartbeat IPC: 0.329853 cumulative IPC: 0.330834 (Simulation time: 0 hr 8 min 9 sec) 
updateCurrDst(163390)
updateCurrDst(163412)
updateCurrDst(163517)
updateCurrDst(163540)
updateCurrDst(163690)
updateCurrDst(163733)
updateCurrDst(163758)
updateCurrDst(163821)
updateCurrDst(163921)
updateCurrDst(163961)
updateCurrDst(164187)
updateCurrDst(164211)
updateCurrDst(164411)
updateCurrDst(164467)
updateCurrDst(164559)
updateCurrDst(164808)
updateCurrDst(164934)
updateCurrDst(165185)
updateCurrDst(165326)
updateCurrDst(165461)
updateCurrDst(165554)
updateCurrDst(165558)
updateCurrDst(165605)
updateCurrDst(165645)
Heartbeat CPU 0 instructions: 68000001 cycles: 70788181 heartbeat IPC: 0.332222 cumulative IPC: 0.330911 (Simulation time: 0 hr 8 min 18 sec) 
updateCurrDst(166203)
updateCurrDst(166205)
updateCurrDst(166320)
updateCurrDst(166321)
updateCurrDst(166352)
updateCurrDst(166405)
updateCurrDst(166443)
updateCurrDst(166460)
updateCurrDst(166474)
updateCurrDst(166715)
updateCurrDst(166738)
updateCurrDst(166884)
updateCurrDst(166929)
updateCurrDst(166978)
updateCurrDst(167130)
updateCurrDst(167157)
updateCurrDst(167241)
updateCurrDst(167294)
updateCurrDst(167338)
updateCurrDst(167608)
updateCurrDst(168118)
updateCurrDst(168240)
updateCurrDst(168287)
updateCurrDst(168302)
updateCurrDst(168355)
Heartbeat CPU 0 instructions: 69000002 cycles: 73818307 heartbeat IPC: 0.33002 cumulative IPC: 0.330864 (Simulation time: 0 hr 8 min 25 sec) 
updateCurrDst(168825)
updateCurrDst(168925)
updateCurrDst(169193)
updateCurrDst(169221)
updateCurrDst(169312)
updateCurrDst(169327)
updateCurrDst(169368)
updateCurrDst(169481)
updateCurrDst(169494)
updateCurrDst(169561)
updateCurrDst(169639)
updateCurrDst(169820)
updateCurrDst(169821)
updateCurrDst(169842)
updateCurrDst(169884)
updateCurrDst(169934)
updateCurrDst(170112)
updateCurrDst(170393)
updateCurrDst(170403)
updateCurrDst(170574)
updateCurrDst(170829)
Heartbeat CPU 0 instructions: 70000000 cycles: 76843353 heartbeat IPC: 0.330573 cumulative IPC: 0.33085 (Simulation time: 0 hr 8 min 33 sec) 
updateCurrDst(171194)
updateCurrDst(171582)
updateCurrDst(171672)
updateCurrDst(171708)
updateCurrDst(172218)
updateCurrDst(172321)
updateCurrDst(172362)
updateCurrDst(172570)
updateCurrDst(172755)
updateCurrDst(173147)
updateCurrDst(173197)
updateCurrDst(173236)
Heartbeat CPU 0 instructions: 71000000 cycles: 79868566 heartbeat IPC: 0.330555 cumulative IPC: 0.330836 (Simulation time: 0 hr 8 min 39 sec) 
updateCurrDst(173391)
updateCurrDst(173471)
updateCurrDst(173474)
updateCurrDst(173527)
updateCurrDst(173540)
updateCurrDst(173553)
updateCurrDst(173584)
updateCurrDst(173610)
updateCurrDst(173773)
updateCurrDst(173969)
updateCurrDst(173985)
updateCurrDst(174185)
updateCurrDst(174237)
updateCurrDst(174258)
updateCurrDst(174352)
updateCurrDst(174378)
updateCurrDst(174454)
updateCurrDst(174518)
updateCurrDst(174632)
updateCurrDst(174860)
updateCurrDst(175058)
updateCurrDst(175377)
updateCurrDst(175432)
updateCurrDst(175566)
updateCurrDst(175622)
updateCurrDst(175734)
updateCurrDst(175825)
updateCurrDst(175933)
Heartbeat CPU 0 instructions: 72000000 cycles: 82882375 heartbeat IPC: 0.331806 cumulative IPC: 0.33088 (Simulation time: 0 hr 8 min 49 sec) 
updateCurrDst(176222)
updateCurrDst(176280)
updateCurrDst(176286)
updateCurrDst(176411)
updateCurrDst(176504)
updateCurrDst(176893)
updateCurrDst(176975)
updateCurrDst(177195)
updateCurrDst(177232)
updateCurrDst(177233)
updateCurrDst(177367)
updateCurrDst(177379)
updateCurrDst(177484)
updateCurrDst(177500)
updateCurrDst(177612)
updateCurrDst(177626)
updateCurrDst(177645)
updateCurrDst(177751)
updateCurrDst(177787)
updateCurrDst(177870)
updateCurrDst(177961)
updateCurrDst(178095)
updateCurrDst(178155)
updateCurrDst(178324)
updateCurrDst(178356)
updateCurrDst(178522)
updateCurrDst(178532)
updateCurrDst(178550)
updateCurrDst(178624)
Heartbeat CPU 0 instructions: 73000000 cycles: 85908271 heartbeat IPC: 0.330481 cumulative IPC: 0.330862 (Simulation time: 0 hr 8 min 56 sec) 
updateCurrDst(178777)
updateCurrDst(178815)
updateCurrDst(178885)
updateCurrDst(178990)
updateCurrDst(179059)
updateCurrDst(179061)
updateCurrDst(179186)
updateCurrDst(179192)
updateCurrDst(179334)
updateCurrDst(179342)
updateCurrDst(179344)
updateCurrDst(179384)
updateCurrDst(179392)
updateCurrDst(179504)
updateCurrDst(179538)
updateCurrDst(179615)
updateCurrDst(179657)
updateCurrDst(179812)
updateCurrDst(179822)
updateCurrDst(179824)
updateCurrDst(179982)
updateCurrDst(180248)
updateCurrDst(180260)
updateCurrDst(180410)
updateCurrDst(180499)
updateCurrDst(180646)
updateCurrDst(180696)
updateCurrDst(180721)
updateCurrDst(180979)
updateCurrDst(181107)
updateCurrDst(181201)
updateCurrDst(181203)
Heartbeat CPU 0 instructions: 74000000 cycles: 88916487 heartbeat IPC: 0.332423 cumulative IPC: 0.330927 (Simulation time: 0 hr 9 min 4 sec) 
updateCurrDst(181371)
updateCurrDst(181408)
updateCurrDst(181466)
updateCurrDst(181492)
updateCurrDst(181493)
updateCurrDst(181524)
updateCurrDst(181922)
updateCurrDst(182030)
updateCurrDst(182062)
updateCurrDst(182067)
updateCurrDst(182185)
updateCurrDst(182331)
updateCurrDst(182537)
updateCurrDst(182656)
updateCurrDst(182682)
updateCurrDst(182889)
updateCurrDst(182968)
updateCurrDst(183368)
updateCurrDst(183457)
updateCurrDst(183554)
Heartbeat CPU 0 instructions: 75000003 cycles: 91945358 heartbeat IPC: 0.330157 cumulative IPC: 0.330896 (Simulation time: 0 hr 9 min 12 sec) 
updateCurrDst(184038)
updateCurrDst(184083)
updateCurrDst(184099)
updateCurrDst(184139)
updateCurrDst(184239)
updateCurrDst(184369)
updateCurrDst(184414)
updateCurrDst(184431)
updateCurrDst(184584)
updateCurrDst(184665)
updateCurrDst(184788)
updateCurrDst(184790)
updateCurrDst(184889)
updateCurrDst(184913)
updateCurrDst(184951)
updateCurrDst(185033)
updateCurrDst(185050)
updateCurrDst(185415)
updateCurrDst(185444)
updateCurrDst(185498)
updateCurrDst(185588)
updateCurrDst(185619)
updateCurrDst(185760)
updateCurrDst(185839)
updateCurrDst(185970)
updateCurrDst(186141)
updateCurrDst(186185)
updateCurrDst(186273)
updateCurrDst(186379)
updateCurrDst(186393)
updateCurrDst(186449)
updateCurrDst(186471)
Heartbeat CPU 0 instructions: 76000002 cycles: 94960854 heartbeat IPC: 0.33162 cumulative IPC: 0.330924 (Simulation time: 0 hr 9 min 20 sec) 
updateCurrDst(186734)
updateCurrDst(186977)
updateCurrDst(187013)
updateCurrDst(187182)
updateCurrDst(187271)
updateCurrDst(187334)
updateCurrDst(187356)
updateCurrDst(187609)
updateCurrDst(187702)
updateCurrDst(187725)
updateCurrDst(187776)
updateCurrDst(187832)
updateCurrDst(187933)
updateCurrDst(187968)
updateCurrDst(187975)
updateCurrDst(188141)
updateCurrDst(188152)
updateCurrDst(188453)
updateCurrDst(188477)
updateCurrDst(188581)
updateCurrDst(188614)
updateCurrDst(188746)
updateCurrDst(188801)
updateCurrDst(188931)
updateCurrDst(189024)
updateCurrDst(189054)
updateCurrDst(189089)
updateCurrDst(189126)
updateCurrDst(189146)
updateCurrDst(189196)
updateCurrDst(189199)
Heartbeat CPU 0 instructions: 77000000 cycles: 97969326 heartbeat IPC: 0.332394 cumulative IPC: 0.330978 (Simulation time: 0 hr 9 min 29 sec) 
updateCurrDst(189544)
updateCurrDst(189762)
updateCurrDst(189814)
updateCurrDst(189943)
updateCurrDst(190100)
updateCurrDst(190178)
updateCurrDst(190204)
updateCurrDst(190361)
updateCurrDst(190384)
updateCurrDst(190469)
updateCurrDst(190476)
updateCurrDst(190584)
updateCurrDst(190606)
updateCurrDst(190785)
updateCurrDst(190791)
updateCurrDst(191077)
updateCurrDst(191111)
updateCurrDst(191126)
updateCurrDst(191214)
updateCurrDst(191226)
updateCurrDst(191231)
updateCurrDst(191492)
updateCurrDst(191500)
updateCurrDst(191516)
Heartbeat CPU 0 instructions: 78000000 cycles: 101005990 heartbeat IPC: 0.329309 cumulative IPC: 0.330918 (Simulation time: 0 hr 9 min 39 sec) 
updateCurrDst(192085)
updateCurrDst(192281)
updateCurrDst(192537)
updateCurrDst(192556)
updateCurrDst(192618)
updateCurrDst(192719)
updateCurrDst(192728)
updateCurrDst(192804)
updateCurrDst(192912)
updateCurrDst(192974)
updateCurrDst(193050)
updateCurrDst(193159)
updateCurrDst(193377)
updateCurrDst(193397)
updateCurrDst(193959)
updateCurrDst(194147)
updateCurrDst(194243)
updateCurrDst(194314)
updateCurrDst(194345)
updateCurrDst(194376)
updateCurrDst(194405)
updateCurrDst(194420)
updateCurrDst(194501)
updateCurrDst(194511)
Heartbeat CPU 0 instructions: 79000000 cycles: 104011572 heartbeat IPC: 0.332714 cumulative IPC: 0.33098 (Simulation time: 0 hr 9 min 46 sec) 
updateCurrDst(194558)
updateCurrDst(194576)
updateCurrDst(194649)
updateCurrDst(194724)
updateCurrDst(194734)
updateCurrDst(194746)
updateCurrDst(195094)
updateCurrDst(195113)
updateCurrDst(195200)
updateCurrDst(195205)
updateCurrDst(195241)
updateCurrDst(195287)
updateCurrDst(195349)
updateCurrDst(195534)
updateCurrDst(195551)
updateCurrDst(195660)
updateCurrDst(195718)
updateCurrDst(195767)
updateCurrDst(195776)
updateCurrDst(196016)
updateCurrDst(196089)
updateCurrDst(196112)
updateCurrDst(196136)
updateCurrDst(196147)
updateCurrDst(196179)
updateCurrDst(196212)
updateCurrDst(196292)
updateCurrDst(196327)
updateCurrDst(196370)
updateCurrDst(196496)
updateCurrDst(196571)
updateCurrDst(196582)
updateCurrDst(196634)
updateCurrDst(196698)
updateCurrDst(196709)
updateCurrDst(196754)
updateCurrDst(196888)
updateCurrDst(197122)
updateCurrDst(197142)
updateCurrDst(197146)
updateCurrDst(197222)
updateCurrDst(197294)
updateCurrDst(197314)
updateCurrDst(197434)
Heartbeat CPU 0 instructions: 80000002 cycles: 107003740 heartbeat IPC: 0.334206 cumulative IPC: 0.331086 (Simulation time: 0 hr 9 min 54 sec) 
updateCurrDst(197554)
updateCurrDst(197600)
updateCurrDst(197640)
updateCurrDst(197755)
updateCurrDst(197958)
updateCurrDst(198008)
updateCurrDst(198093)
updateCurrDst(198211)
updateCurrDst(198217)
updateCurrDst(198358)
updateCurrDst(198409)
updateCurrDst(198421)
updateCurrDst(198550)
updateCurrDst(198632)
updateCurrDst(198719)
updateCurrDst(198995)
updateCurrDst(199012)
updateCurrDst(199029)
updateCurrDst(199277)
updateCurrDst(199317)
updateCurrDst(199434)
updateCurrDst(199813)
updateCurrDst(199837)
updateCurrDst(199881)
updateCurrDst(199886)
updateCurrDst(200043)
updateCurrDst(200086)
updateCurrDst(200093)
Heartbeat CPU 0 instructions: 81000001 cycles: 110036246 heartbeat IPC: 0.32976 cumulative IPC: 0.331043 (Simulation time: 0 hr 10 min 3 sec) 
updateCurrDst(200149)
updateCurrDst(200213)
updateCurrDst(200399)
updateCurrDst(200466)
updateCurrDst(200531)
updateCurrDst(200771)
updateCurrDst(200852)
updateCurrDst(200874)
updateCurrDst(200928)
updateCurrDst(200981)
updateCurrDst(201234)
updateCurrDst(201396)
updateCurrDst(201414)
updateCurrDst(201457)
updateCurrDst(201555)
updateCurrDst(201615)
updateCurrDst(201631)
updateCurrDst(201715)
updateCurrDst(201742)
updateCurrDst(202017)
updateCurrDst(202260)
updateCurrDst(202374)
updateCurrDst(202527)
updateCurrDst(202545)
updateCurrDst(202554)
updateCurrDst(202576)
updateCurrDst(202609)
updateCurrDst(202820)
updateCurrDst(202822)
Heartbeat CPU 0 instructions: 82000000 cycles: 113036925 heartbeat IPC: 0.333258 cumulative IPC: 0.331112 (Simulation time: 0 hr 10 min 12 sec) 
updateCurrDst(202924)
updateCurrDst(202935)
updateCurrDst(203047)
updateCurrDst(203293)
updateCurrDst(203407)
updateCurrDst(203501)
updateCurrDst(203503)
updateCurrDst(203691)
updateCurrDst(203837)
updateCurrDst(203930)
updateCurrDst(204135)
updateCurrDst(204197)
updateCurrDst(204215)
updateCurrDst(204289)
updateCurrDst(204420)
updateCurrDst(204516)
updateCurrDst(204523)
updateCurrDst(204586)
updateCurrDst(204718)
Heartbeat CPU 0 instructions: 83000002 cycles: 116099867 heartbeat IPC: 0.326484 cumulative IPC: 0.33097 (Simulation time: 0 hr 10 min 20 sec) 
updateCurrDst(205264)
updateCurrDst(205294)
updateCurrDst(205573)
updateCurrDst(205648)
updateCurrDst(205750)
updateCurrDst(205804)
updateCurrDst(205886)
updateCurrDst(205980)
updateCurrDst(206101)
updateCurrDst(206103)
updateCurrDst(206326)
updateCurrDst(206385)
updateCurrDst(206397)
updateCurrDst(206564)
updateCurrDst(206611)
updateCurrDst(206621)
updateCurrDst(206641)
updateCurrDst(206843)
updateCurrDst(206872)
updateCurrDst(207138)
updateCurrDst(207346)
updateCurrDst(207556)
updateCurrDst(207610)
updateCurrDst(207729)
updateCurrDst(207736)
updateCurrDst(207749)
updateCurrDst(207973)
updateCurrDst(207999)
updateCurrDst(208069)
updateCurrDst(208193)
Heartbeat CPU 0 instructions: 84000000 cycles: 119089167 heartbeat IPC: 0.334526 cumulative IPC: 0.331073 (Simulation time: 0 hr 10 min 28 sec) 
updateCurrDst(208230)
updateCurrDst(208379)
updateCurrDst(208390)
updateCurrDst(208488)
updateCurrDst(208531)
updateCurrDst(208701)
updateCurrDst(208970)
updateCurrDst(209256)
updateCurrDst(209284)
updateCurrDst(209328)
updateCurrDst(209420)
updateCurrDst(209454)
updateCurrDst(209490)
updateCurrDst(209799)
updateCurrDst(209883)
updateCurrDst(209908)
updateCurrDst(209928)
updateCurrDst(210058)
updateCurrDst(210086)
updateCurrDst(210093)
updateCurrDst(210138)
updateCurrDst(210140)
updateCurrDst(210149)
updateCurrDst(210237)
updateCurrDst(210389)
updateCurrDst(210431)
updateCurrDst(210436)
updateCurrDst(210460)
updateCurrDst(210613)
updateCurrDst(210739)
updateCurrDst(210873)
updateCurrDst(210951)
Heartbeat CPU 0 instructions: 85000001 cycles: 122111773 heartbeat IPC: 0.330841 cumulative IPC: 0.331067 (Simulation time: 0 hr 10 min 36 sec) 
updateCurrDst(211027)
updateCurrDst(211037)
updateCurrDst(211104)
updateCurrDst(211109)
updateCurrDst(211137)
updateCurrDst(211269)
updateCurrDst(211359)
updateCurrDst(211605)
updateCurrDst(211627)
updateCurrDst(211754)
updateCurrDst(211867)
updateCurrDst(211908)
updateCurrDst(212018)
updateCurrDst(212098)
updateCurrDst(212106)
updateCurrDst(212148)
updateCurrDst(212234)
updateCurrDst(212267)
updateCurrDst(212268)
updateCurrDst(212303)
updateCurrDst(212543)
updateCurrDst(212577)
updateCurrDst(212604)
updateCurrDst(212611)
updateCurrDst(212890)
updateCurrDst(212940)
updateCurrDst(212996)
updateCurrDst(213117)
updateCurrDst(213131)
updateCurrDst(213166)
updateCurrDst(213454)
updateCurrDst(213521)
updateCurrDst(213660)
updateCurrDst(213689)
updateCurrDst(213984)
Heartbeat CPU 0 instructions: 86000000 cycles: 125099648 heartbeat IPC: 0.334686 cumulative IPC: 0.331166 (Simulation time: 0 hr 10 min 46 sec) 
updateCurrDst(214050)
updateCurrDst(214111)
updateCurrDst(214126)
updateCurrDst(214147)
updateCurrDst(214174)
updateCurrDst(214319)
updateCurrDst(214375)
updateCurrDst(214800)
updateCurrDst(214869)
updateCurrDst(215369)
updateCurrDst(215457)
updateCurrDst(215637)
updateCurrDst(215851)
updateCurrDst(215977)
updateCurrDst(216017)
updateCurrDst(216230)
updateCurrDst(216558)
updateCurrDst(216640)
updateCurrDst(216643)
Heartbeat CPU 0 instructions: 87000000 cycles: 128108128 heartbeat IPC: 0.332394 cumulative IPC: 0.331199 (Simulation time: 0 hr 10 min 53 sec) 
updateCurrDst(216655)
updateCurrDst(216832)
updateCurrDst(216845)
updateCurrDst(217007)
updateCurrDst(217093)
updateCurrDst(217136)
updateCurrDst(217468)
updateCurrDst(217555)
updateCurrDst(217777)
updateCurrDst(217782)
updateCurrDst(217891)
updateCurrDst(218113)
updateCurrDst(218230)
updateCurrDst(218257)
updateCurrDst(218317)
updateCurrDst(218414)
updateCurrDst(218567)
Heartbeat CPU 0 instructions: 88000000 cycles: 131170974 heartbeat IPC: 0.326494 cumulative IPC: 0.331074 (Simulation time: 0 hr 11 min 2 sec) 
updateCurrDst(218681)
updateCurrDst(218743)
updateCurrDst(218747)
updateCurrDst(218911)
updateCurrDst(218975)
updateCurrDst(219058)
updateCurrDst(219230)
updateCurrDst(219594)
updateCurrDst(219717)
updateCurrDst(219820)
updateCurrDst(220038)
updateCurrDst(220139)
updateCurrDst(220290)
updateCurrDst(220303)
updateCurrDst(220304)
updateCurrDst(220314)
updateCurrDst(220442)
updateCurrDst(220519)
updateCurrDst(220573)
updateCurrDst(220575)
updateCurrDst(220822)
updateCurrDst(220956)
updateCurrDst(221067)
updateCurrDst(221118)
updateCurrDst(221162)
updateCurrDst(221238)
Heartbeat CPU 0 instructions: 89000000 cycles: 134201929 heartbeat IPC: 0.329929 cumulative IPC: 0.331044 (Simulation time: 0 hr 11 min 10 sec) 
updateCurrDst(221473)
updateCurrDst(221502)
updateCurrDst(221679)
updateCurrDst(221687)
updateCurrDst(221807)
updateCurrDst(221868)
updateCurrDst(222009)
updateCurrDst(222299)
updateCurrDst(222423)
updateCurrDst(222597)
updateCurrDst(222695)
updateCurrDst(222747)
updateCurrDst(222759)
updateCurrDst(222760)
updateCurrDst(222914)
updateCurrDst(222958)
updateCurrDst(222995)
updateCurrDst(223018)
updateCurrDst(223069)
updateCurrDst(223119)
updateCurrDst(223283)
updateCurrDst(223462)
updateCurrDst(223496)
Heartbeat CPU 0 instructions: 90000000 cycles: 137234585 heartbeat IPC: 0.329744 cumulative IPC: 0.331012 (Simulation time: 0 hr 11 min 18 sec) 
updateCurrDst(223653)
updateCurrDst(223787)
updateCurrDst(223987)
updateCurrDst(224342)
updateCurrDst(224641)
updateCurrDst(224768)
updateCurrDst(224914)
updateCurrDst(224926)
updateCurrDst(225274)
updateCurrDst(225373)
updateCurrDst(225392)
updateCurrDst(225452)
updateCurrDst(225601)
updateCurrDst(225691)
updateCurrDst(225748)
updateCurrDst(226070)
updateCurrDst(226322)
Heartbeat CPU 0 instructions: 91000000 cycles: 140242136 heartbeat IPC: 0.332496 cumulative IPC: 0.331048 (Simulation time: 0 hr 11 min 27 sec) 
updateCurrDst(226412)
updateCurrDst(226597)
updateCurrDst(226630)
updateCurrDst(226655)
updateCurrDst(226900)
updateCurrDst(226960)
updateCurrDst(226992)
updateCurrDst(227101)
updateCurrDst(227113)
updateCurrDst(227120)
updateCurrDst(227122)
updateCurrDst(227247)
updateCurrDst(227339)
updateCurrDst(227386)
updateCurrDst(227527)
updateCurrDst(227636)
updateCurrDst(227812)
updateCurrDst(227915)
updateCurrDst(227967)
updateCurrDst(227972)
updateCurrDst(228006)
updateCurrDst(228021)
updateCurrDst(228049)
updateCurrDst(228109)
updateCurrDst(228419)
updateCurrDst(228634)
updateCurrDst(228642)
updateCurrDst(228689)
updateCurrDst(228922)
Heartbeat CPU 0 instructions: 92000000 cycles: 143253483 heartbeat IPC: 0.332077 cumulative IPC: 0.331072 (Simulation time: 0 hr 11 min 34 sec) 
updateCurrDst(229425)
updateCurrDst(229490)
updateCurrDst(229521)
updateCurrDst(229593)
updateCurrDst(229779)
updateCurrDst(229804)
updateCurrDst(229831)
updateCurrDst(229839)
updateCurrDst(229885)
updateCurrDst(229891)
updateCurrDst(229981)
updateCurrDst(230037)
updateCurrDst(230099)
updateCurrDst(230241)
updateCurrDst(230406)
updateCurrDst(230830)
updateCurrDst(230865)
updateCurrDst(230957)
updateCurrDst(231025)
updateCurrDst(231091)
updateCurrDst(231093)
updateCurrDst(231156)
updateCurrDst(231242)
updateCurrDst(231271)
updateCurrDst(231286)
updateCurrDst(231325)
Heartbeat CPU 0 instructions: 93000000 cycles: 146298887 heartbeat IPC: 0.328364 cumulative IPC: 0.331009 (Simulation time: 0 hr 11 min 44 sec) 
updateCurrDst(231389)
updateCurrDst(231399)
updateCurrDst(231579)
updateCurrDst(231676)
updateCurrDst(231763)
updateCurrDst(231771)
updateCurrDst(231809)
updateCurrDst(231953)
updateCurrDst(232056)
updateCurrDst(232120)
updateCurrDst(232140)
updateCurrDst(232227)
updateCurrDst(232415)
updateCurrDst(232454)
updateCurrDst(232563)
updateCurrDst(232706)
updateCurrDst(232759)
updateCurrDst(232950)
updateCurrDst(232961)
updateCurrDst(232982)
updateCurrDst(233147)
updateCurrDst(233233)
updateCurrDst(233775)
updateCurrDst(233797)
updateCurrDst(233933)
updateCurrDst(233972)
Heartbeat CPU 0 instructions: 94000002 cycles: 149304698 heartbeat IPC: 0.33269 cumulative IPC: 0.331047 (Simulation time: 0 hr 11 min 51 sec) 
updateCurrDst(234149)
updateCurrDst(234389)
updateCurrDst(234721)
updateCurrDst(234856)
updateCurrDst(234871)
updateCurrDst(234939)
updateCurrDst(235139)
updateCurrDst(235248)
updateCurrDst(235283)
updateCurrDst(235363)
updateCurrDst(235368)
updateCurrDst(235393)
updateCurrDst(235515)
updateCurrDst(235535)
updateCurrDst(235538)
updateCurrDst(235642)
updateCurrDst(235843)
updateCurrDst(235944)
updateCurrDst(236128)
updateCurrDst(236154)
updateCurrDst(236162)
updateCurrDst(236164)
updateCurrDst(236210)
updateCurrDst(236353)
updateCurrDst(236422)
updateCurrDst(236502)
Heartbeat CPU 0 instructions: 95000000 cycles: 152354793 heartbeat IPC: 0.327858 cumulative IPC: 0.330975 (Simulation time: 0 hr 11 min 59 sec) 
updateCurrDst(236566)
updateCurrDst(236600)
updateCurrDst(236618)
updateCurrDst(236732)
updateCurrDst(236775)
updateCurrDst(236806)
updateCurrDst(236867)
updateCurrDst(236929)
updateCurrDst(237014)
updateCurrDst(237112)
updateCurrDst(237179)
updateCurrDst(237329)
updateCurrDst(237380)
updateCurrDst(237399)
updateCurrDst(237401)
updateCurrDst(237402)
updateCurrDst(237675)
updateCurrDst(237837)
updateCurrDst(237915)
updateCurrDst(238067)
updateCurrDst(238128)
updateCurrDst(238409)
updateCurrDst(238431)
updateCurrDst(238580)
updateCurrDst(238589)
Heartbeat CPU 0 instructions: 96000000 cycles: 155429106 heartbeat IPC: 0.325276 cumulative IPC: 0.330849 (Simulation time: 0 hr 12 min 7 sec) 
updateCurrDst(238749)
updateCurrDst(239093)
updateCurrDst(239094)
updateCurrDst(239097)
updateCurrDst(239190)
updateCurrDst(239268)
updateCurrDst(239302)
updateCurrDst(239515)
updateCurrDst(239627)
updateCurrDst(239710)
updateCurrDst(239765)
updateCurrDst(239832)
updateCurrDst(240071)
updateCurrDst(240083)
updateCurrDst(240087)
updateCurrDst(240193)
updateCurrDst(240215)
updateCurrDst(240371)
updateCurrDst(240379)
updateCurrDst(240387)
updateCurrDst(240486)
updateCurrDst(240602)
updateCurrDst(240817)
updateCurrDst(240939)
updateCurrDst(241055)
Heartbeat CPU 0 instructions: 97000003 cycles: 158488962 heartbeat IPC: 0.326814 cumulative IPC: 0.330762 (Simulation time: 0 hr 12 min 16 sec) 
updateCurrDst(241402)
updateCurrDst(241612)
updateCurrDst(241709)
updateCurrDst(241924)
updateCurrDst(241998)
updateCurrDst(242067)
updateCurrDst(242079)
updateCurrDst(242270)
updateCurrDst(242284)
updateCurrDst(242299)
updateCurrDst(242401)
updateCurrDst(242537)
updateCurrDst(242777)
updateCurrDst(242873)
updateCurrDst(243153)
updateCurrDst(243183)
updateCurrDst(243197)
updateCurrDst(243265)
updateCurrDst(243268)
updateCurrDst(243405)
updateCurrDst(243540)
updateCurrDst(243572)
updateCurrDst(243578)
updateCurrDst(243612)
updateCurrDst(243801)
updateCurrDst(243829)
updateCurrDst(243951)
updateCurrDst(243959)
Heartbeat CPU 0 instructions: 98000002 cycles: 161531452 heartbeat IPC: 0.328678 cumulative IPC: 0.330719 (Simulation time: 0 hr 12 min 25 sec) 
updateCurrDst(244049)
updateCurrDst(244111)
updateCurrDst(244128)
updateCurrDst(244162)
updateCurrDst(244305)
updateCurrDst(244345)
updateCurrDst(244428)
updateCurrDst(244437)
updateCurrDst(244457)
updateCurrDst(244623)
updateCurrDst(244781)
updateCurrDst(245149)
updateCurrDst(245176)
updateCurrDst(245418)
updateCurrDst(245465)
updateCurrDst(245478)
updateCurrDst(245579)
updateCurrDst(245657)
updateCurrDst(245717)
updateCurrDst(245726)
updateCurrDst(245944)
updateCurrDst(246437)
updateCurrDst(246585)
updateCurrDst(246713)
updateCurrDst(246745)
updateCurrDst(246761)
Heartbeat CPU 0 instructions: 99000000 cycles: 164584345 heartbeat IPC: 0.327558 cumulative IPC: 0.330653 (Simulation time: 0 hr 12 min 33 sec) 
updateCurrDst(246824)
updateCurrDst(246856)
updateCurrDst(247007)
updateCurrDst(247012)
updateCurrDst(247369)
updateCurrDst(247395)
updateCurrDst(247455)
updateCurrDst(247524)
updateCurrDst(247674)
updateCurrDst(247837)
updateCurrDst(248010)
updateCurrDst(248113)
updateCurrDst(248250)
updateCurrDst(248262)
updateCurrDst(248413)
updateCurrDst(248440)
updateCurrDst(248457)
updateCurrDst(248515)
updateCurrDst(249024)
updateCurrDst(249095)
updateCurrDst(249316)
updateCurrDst(249382)
Heartbeat CPU 0 instructions: 100000001 cycles: 167636856 heartbeat IPC: 0.327599 cumulative IPC: 0.330592 (Simulation time: 0 hr 12 min 42 sec) 
updateCurrDst(249654)
updateCurrDst(249758)
updateCurrDst(249768)
updateCurrDst(249877)
updateCurrDst(249897)
updateCurrDst(249921)
updateCurrDst(250066)
updateCurrDst(250150)
updateCurrDst(250278)
updateCurrDst(250326)
updateCurrDst(250390)
updateCurrDst(250450)
updateCurrDst(250451)
updateCurrDst(250690)
updateCurrDst(250694)
updateCurrDst(250710)
updateCurrDst(250723)
updateCurrDst(250806)
updateCurrDst(250855)
updateCurrDst(250871)
updateCurrDst(250972)
updateCurrDst(250980)
updateCurrDst(251140)
updateCurrDst(251154)
updateCurrDst(251239)
updateCurrDst(251359)
updateCurrDst(251622)
updateCurrDst(251704)
updateCurrDst(251799)
updateCurrDst(251932)
updateCurrDst(252057)
Heartbeat CPU 0 instructions: 101000001 cycles: 170688894 heartbeat IPC: 0.32765 cumulative IPC: 0.330534 (Simulation time: 0 hr 12 min 50 sec) 
updateCurrDst(252201)
updateCurrDst(252208)
updateCurrDst(252382)
updateCurrDst(252462)
updateCurrDst(252541)
updateCurrDst(252548)
updateCurrDst(252762)
updateCurrDst(252843)
updateCurrDst(253014)
updateCurrDst(253076)
updateCurrDst(253121)
updateCurrDst(253316)
updateCurrDst(253362)
updateCurrDst(253368)
updateCurrDst(253678)
updateCurrDst(253838)
updateCurrDst(254173)
updateCurrDst(254243)
updateCurrDst(254245)
updateCurrDst(254261)
updateCurrDst(254288)
updateCurrDst(254373)
updateCurrDst(254494)
updateCurrDst(254733)
updateCurrDst(254874)
Heartbeat CPU 0 instructions: 102000000 cycles: 173732288 heartbeat IPC: 0.32858 cumulative IPC: 0.330496 (Simulation time: 0 hr 13 min 1 sec) 
updateCurrDst(255184)
updateCurrDst(255196)
updateCurrDst(255216)
updateCurrDst(255372)
updateCurrDst(255515)
updateCurrDst(255640)
updateCurrDst(255732)
updateCurrDst(255872)
updateCurrDst(255893)
updateCurrDst(255937)
updateCurrDst(256070)
updateCurrDst(256172)
updateCurrDst(256206)
updateCurrDst(256669)
updateCurrDst(256715)
updateCurrDst(256778)
updateCurrDst(256810)
updateCurrDst(257274)
updateCurrDst(257636)
updateCurrDst(257662)
Heartbeat CPU 0 instructions: 103000003 cycles: 176787735 heartbeat IPC: 0.327285 cumulative IPC: 0.330435 (Simulation time: 0 hr 13 min 8 sec) 
updateCurrDst(257783)
updateCurrDst(257798)
updateCurrDst(257812)
updateCurrDst(257857)
updateCurrDst(258007)
updateCurrDst(258050)
updateCurrDst(258071)
updateCurrDst(258209)
updateCurrDst(258234)
updateCurrDst(258318)
updateCurrDst(258379)
updateCurrDst(258384)
updateCurrDst(258472)
updateCurrDst(258616)
updateCurrDst(258901)
updateCurrDst(258939)
updateCurrDst(259127)
updateCurrDst(259178)
updateCurrDst(259359)
updateCurrDst(259372)
updateCurrDst(259383)
updateCurrDst(259552)
updateCurrDst(259642)
updateCurrDst(259710)
updateCurrDst(259793)
updateCurrDst(259866)
updateCurrDst(259890)
updateCurrDst(259930)
updateCurrDst(259942)
updateCurrDst(260063)
Heartbeat CPU 0 instructions: 104000001 cycles: 179856523 heartbeat IPC: 0.325861 cumulative IPC: 0.330349 (Simulation time: 0 hr 13 min 15 sec) 
updateCurrDst(260366)
updateCurrDst(260706)
updateCurrDst(260836)
updateCurrDst(260837)
updateCurrDst(261036)
updateCurrDst(261104)
updateCurrDst(261216)
updateCurrDst(261435)
updateCurrDst(261495)
updateCurrDst(261621)
updateCurrDst(261772)
updateCurrDst(261894)
updateCurrDst(261966)
updateCurrDst(262056)
updateCurrDst(262085)
*** Reached end of trace for Core: 0 Repeating trace: testcases/pull_g18_k2.xzafter: 104869771
Heartbeat CPU 0 instructions: 105000002 cycles: 182997754 heartbeat IPC: 0.318347 cumulative IPC: 0.330122 (Simulation time: 0 hr 13 min 23 sec) 
PIN_registerGraphs(test_g18_k2.sg,1)
Graphh Number of Nodes: 262140
Heartbeat CPU 0 instructions: 106000000 cycles: 185755061 heartbeat IPC: 0.362672 cumulative IPC: 0.330652 (Simulation time: 0 hr 13 min 34 sec) 
Heartbeat CPU 0 instructions: 107000000 cycles: 187255065 heartbeat IPC: 0.666665 cumulative IPC: 0.333602 (Simulation time: 0 hr 13 min 41 sec) 
Heartbeat CPU 0 instructions: 108000001 cycles: 188757079 heartbeat IPC: 0.665773 cumulative IPC: 0.336497 (Simulation time: 0 hr 13 min 48 sec) 
Heartbeat CPU 0 instructions: 109000001 cycles: 190257087 heartbeat IPC: 0.666663 cumulative IPC: 0.339345 (Simulation time: 0 hr 13 min 53 sec) 
PIN_updateRegBaseBound( 94042230468752, 94042231517312)
Heartbeat CPU 0 instructions: 110000000 cycles: 191855469 heartbeat IPC: 0.625632 cumulative IPC: 0.341953 (Simulation time: 0 hr 13 min 59 sec) 
Finished CPU 0 instructions: 60000000 cycles: 175462557 cumulative IPC: 0.341953 (Simulation time: 0 hr 13 min 59 sec) 

ChampSim completed all CPUs

Region of Interest Statistics

CPU 0 cumulative IPC: 0.341953 instructions: 60000000 cycles: 175462557

Total ROB STALLS:                   23018988
STLB MISS ROB STALLS:                   1010
L1D  LOAD MISS ROB STALLS:            552025  Translation MISS ROB STALLS:             0
L2C  LOAD MISS ROB STALLS:            238299  Translation MISS ROB STALLS:             0
LLC  LOAD MISS ROB STALLS:             67182  Translation MISS ROB STALLS:             0

ITLB TOTAL     ACCESS:           8586383  HIT:    8586346  MISS:         37  HIT %:    99.9996  MISS %: 0.000430915   MPKI: 0.000616667
ITLB LOAD TRANSLATION ACCESS:    8586383  HIT:    8586346  MISS:         37  HIT %:    99.9996  MISS %: 0.000430915   MPKI: 0.000616667
ITLB AVERAGE MISS LATENCY:        215.27 cycles
ITLB RQ ACCESS:     9474510	FORWARD:           0	MERGED:       888124	TO_CACHE:    8586386

DTLB TOTAL     ACCESS:          17666267  HIT:   17286305  MISS:     379962  HIT %:    97.8492  MISS %:    2.15078   MPKI: 6.3327
DTLB LOAD TRANSLATION ACCESS:   17666267  HIT:   17286305  MISS:     379962  HIT %:    97.8492  MISS %:    2.15078   MPKI: 6.3327
DTLB AVERAGE MISS LATENCY:       9.66246 cycles
DTLB RQ ACCESS:    23517853	FORWARD:           0	MERGED:      5850067	TO_CACHE:   17667786

STLB TOTAL     ACCESS:            379999  HIT:     378840  MISS:       1159  HIT %:     99.695  MISS %:   0.305001   MPKI: 0.0193167
STLB LOAD TRANSLATION ACCESS:     379999  HIT:     378840  MISS:       1159  HIT %:     99.695  MISS %:   0.305001   MPKI: 0.0193167
STLB AVERAGE MISS LATENCY:       223.763 cycles
STLB RQ ACCESS:      379999	FORWARD:           0	MERGED:            0	TO_CACHE:     379999

PSCL5 TOTAL     ACCESS:              1159  HIT:       1159  MISS:          0  HIT %:        100  MISS %:          0   MPKI: 0
PSCL5 LOAD TRANSLATION ACCESS:       1159  HIT:       1159  MISS:          0  HIT %:        100  MISS %:          0   MPKI: 0

PSCL4 TOTAL     ACCESS:              1159  HIT:       1159  MISS:          0  HIT %:        100  MISS %:          0   MPKI: 0
PSCL4 LOAD TRANSLATION ACCESS:       1159  HIT:       1159  MISS:          0  HIT %:        100  MISS %:          0   MPKI: 0

PSCL3 TOTAL     ACCESS:              1159  HIT:       1159  MISS:          0  HIT %:        100  MISS %:          0   MPKI: 0
PSCL3 LOAD TRANSLATION ACCESS:       1159  HIT:       1159  MISS:          0  HIT %:        100  MISS %:          0   MPKI: 0

PSCL2 TOTAL     ACCESS:              1159  HIT:       1158  MISS:          1  HIT %:    99.9137  MISS %:  0.0862813   MPKI: 1.66667e-05
PSCL2 LOAD TRANSLATION ACCESS:       1159  HIT:       1158  MISS:          1  HIT %:    99.9137  MISS %:  0.0862813   MPKI: 1.66667e-05

L1D TOTAL     ACCESS:          23223364  HIT:   22634914  MISS:     588450  HIT %:    97.4661  MISS %:    2.53387   MPKI: 9.8075  USED:     117743  UNUSED:     470707
L1D LOAD      ACCESS:           9434622  HIT:    8882422  MISS:     552200  HIT %:    94.1471  MISS %:    5.85291   MPKI: 9.20333  USED:     117582  UNUSED:     434920
L1D RFO       ACCESS:          13788742  HIT:   13752492  MISS:      36250  HIT %:    99.7371  MISS %:   0.262896   MPKI: 0.604167
L1D PTL1 TRANSLATION ACCESS:          0  HIT:          0  MISS:          0  HIT %:       -nan  MISS %:       -nan   MPKI: 0
L1D PTL2 TRANSLATION ACCESS:          0  HIT:          0  MISS:          0  HIT %:       -nan  MISS %:       -nan   MPKI: 0
L1D PTL3 TRANSLATION ACCESS:          0  HIT:          0  MISS:          0  HIT %:       -nan  MISS %:       -nan   MPKI: 0
L1D PTL4 TRANSLATION ACCESS:          0  HIT:          0  MISS:          0  HIT %:       -nan  MISS %:       -nan   MPKI: 0
L1D PTL5 TRANSLATION ACCESS:          0  HIT:          0  MISS:          0  HIT %:       -nan  MISS %:       -nan   MPKI: 0
L1D TOTAL EVICTIONS:             588450  TRANSLATION EVICTIONS:          0  TRANSLATION EVICTING TRANSALTION:          0  TRANSLATION EVICTING LOAD:          0  LOAD EVICTING TRANSALTION:          0  LOAD EVICTING LOAD:      551348
L1D AVERAGE MISS LATENCY:       47.5654 cycles  AVERAGE LOAD MISS LATENCY:        42.535 cycles  AVERAGE LOAD TRANSLATION MISS LATENCY:          -nan cycles
L1D RQ ACCESS:    14595982	FORWARD:           0	MERGED:      3796959	TO_CACHE:    9434658
L1D WQ ACCESS:    14429103	FORWARD:     1364365	MERGED:       345908	TO_CACHE:   14083195

L1I TOTAL     ACCESS:           9474490  HIT:    9474286  MISS:        204  HIT %:    99.9978  MISS %: 0.00215315   MPKI: 0.0034
L1I LOAD      ACCESS:           9474490  HIT:    9474286  MISS:        204  HIT %:    99.9978  MISS %: 0.00215315   MPKI: 0.0034
L1I AVERAGE MISS LATENCY:       198.245 cycles
L1I RQ ACCESS:    14791022	FORWARD:           0	MERGED:      5316512	TO_CACHE:    9474510

L2C TOTAL     ACCESS:            633675  HIT:     359007  MISS:     274668  HIT %:    56.6548  MISS %:    43.3452   MPKI: 4.5778  USED:      79906  UNUSED:     194762
L2C LOAD      ACCESS:            552404  HIT:     313781  MISS:     238623  HIT %:    56.8028  MISS %:    43.1972   MPKI: 3.97705  USED:      79847  UNUSED:     166492
L2C RFO       ACCESS:             36250  HIT:        255  MISS:      35995  HIT %:   0.703448  MISS %:    99.2966   MPKI: 0.599917
L2C WRITEBACK ACCESS:             45021  HIT:      44971  MISS:         50  HIT %:    99.8889  MISS %:   0.111059   MPKI: 0.000833333
L2C PTL1 TRANSLATION ACCESS:          0  HIT:          0  MISS:          0  HIT %:       -nan  MISS %:       -nan   MPKI: 0
L2C PTL2 TRANSLATION ACCESS:          0  HIT:          0  MISS:          0  HIT %:       -nan  MISS %:       -nan   MPKI: 0
L2C PTL3 TRANSLATION ACCESS:          0  HIT:          0  MISS:          0  HIT %:       -nan  MISS %:       -nan   MPKI: 0
L2C PTL4 TRANSLATION ACCESS:          0  HIT:          0  MISS:          0  HIT %:       -nan  MISS %:       -nan   MPKI: 0
L2C PTL5 TRANSLATION ACCESS:          0  HIT:          0  MISS:          0  HIT %:       -nan  MISS %:       -nan   MPKI: 0
L2C TOTAL EVICTIONS:             274668  TRANSLATION EVICTIONS:          0  TRANSLATION EVICTING TRANSALTION:          0  TRANSLATION EVICTING LOAD:          0  LOAD EVICTING TRANSALTION:          0  LOAD EVICTING LOAD:      238053
L2C AVERAGE MISS LATENCY:       69.9049 cycles  AVERAGE LOAD MISS LATENCY:       63.8763 cycles  AVERAGE LOAD TRANSLATION MISS LATENCY:          -nan cycles
L2C RQ ACCESS:      588654	FORWARD:           0	MERGED:            0	TO_CACHE:     588654
L2C WQ ACCESS:       45021	FORWARD:           0	MERGED:            0	TO_CACHE:      45021

LLC TOTAL     ACCESS:            312332  HIT:     228323  MISS:      84009  HIT %:    73.1027  MISS %:    26.8973   MPKI: 1.40015  USED:          0  UNUSED:          0
LLC LOAD      ACCESS:            238623  HIT:     171151  MISS:      67472  HIT %:    71.7244  MISS %:    28.2756   MPKI: 1.12453  USED:          0  UNUSED:          0
LLC RFO       ACCESS:             35995  HIT:      19695  MISS:      16300  HIT %:    54.7159  MISS %:    45.2841   MPKI: 0.271667
LLC WRITEBACK ACCESS:             37714  HIT:      37477  MISS:        237  HIT %:    99.3716  MISS %:   0.628414   MPKI: 0.00395
LLC PTL1 TRANSLATION ACCESS:          0  HIT:          0  MISS:          0  HIT %:       -nan  MISS %:       -nan   MPKI: 0
LLC PTL2 TRANSLATION ACCESS:          0  HIT:          0  MISS:          0  HIT %:       -nan  MISS %:       -nan   MPKI: 0
LLC PTL3 TRANSLATION ACCESS:          0  HIT:          0  MISS:          0  HIT %:       -nan  MISS %:       -nan   MPKI: 0
LLC PTL4 TRANSLATION ACCESS:          0  HIT:          0  MISS:          0  HIT %:       -nan  MISS %:       -nan   MPKI: 0
LLC PTL5 TRANSLATION ACCESS:          0  HIT:          0  MISS:          0  HIT %:       -nan  MISS %:       -nan   MPKI: 0
LLC TOTAL EVICTIONS:                  0  TRANSLATION EVICTIONS:          0  TRANSLATION EVICTING TRANSALTION:          0  TRANSLATION EVICTING LOAD:          0  LOAD EVICTING TRANSALTION:          0  LOAD EVICTING LOAD:           0
LLC AVERAGE MISS LATENCY:       130.484 cycles  AVERAGE LOAD MISS LATENCY:       119.805 cycles  AVERAGE LOAD TRANSLATION MISS LATENCY:          -nan cycles
LLC RQ ACCESS:      274618	FORWARD:           0	MERGED:            0	TO_CACHE:     274618
LLC WQ ACCESS:       37714	FORWARD:           0	MERGED:            0	TO_CACHE:      37714


RAW hits: 11500780
Loads Generated: 26096762
Loads sent to L1D: 14595982
Stores Generated: 14429103
Stores sent to L1D: 14429103
Major fault: 0 Minor fault: 2256
Allocated PAGES: 2256
IRREG DATA L1D ACCESS: 1227636
L2C ACCESSES: 895704
L2C MISSES: 330552

DRAM Statistics
 CHANNEL 0
 RQ ROW_BUFFER_HIT:      34964  ROW_BUFFER_MISS:      49967
 DBUS_CONGESTED:          5
 WQ ROW_BUFFER_HIT:       5640  ROW_BUFFER_MISS:      12424  FULL:          0

 AVG_CONGESTED_CYCLE: 5

CPU 0 Branch Prediction Accuracy: 98.6362% MPKI: 1.78668 Average ROB Occupancy at Mispredict: 14.5241
Branch types
NOT_BRANCH: 52139391 86.899%
BRANCH_DIRECT_JUMP: 0 0%
BRANCH_INDIRECT: 1261086 2.10181%
BRANCH_CONDITIONAL: 0 0%
BRANCH_DIRECT_CALL: 143664 0.23944%
BRANCH_INDIRECT_CALL: 2308784 3.84797%
BRANCH_RETURN: 2452448 4.08741%
BRANCH_OTHER: 1694283 2.82381%

DRAM PAGES: 1048576
Allocated PAGES: 2256
