
*** ChampSim Multicore Out-of-Order Simulator ***

Warmup Instructions: 69000000
Simulation Instructions: 69000000
Number of CPUs: 1
LLC sets: 2048
LLC ways: 16
Off-chip DRAM Size: 4096 MB Channels: 1 Width: 64-bit Data Rate: 6400 MT/s
CPU 0 runs ./tracer/pull_u18_k3.xz
.xz
BTB has LRU replacement policy
ITLB has LRU replacement policy
DTLB has LRU replacement policy
STLB has LRU replacement policy
L1I has LRU replacement policy
L1D has LRU replacement policy
L2C has LRU replacement policy
Initialize DRRIP state for LLC
Heartbeat CPU 0 instructions: 1000000 cycles: 350521 heartbeat IPC: 2.8529 cumulative IPC: 2.8529 (Simulation time: 0 hr 0 min 3 sec) 
Heartbeat CPU 0 instructions: 2000003 cycles: 701021 heartbeat IPC: 2.85308 cumulative IPC: 2.85299 (Simulation time: 0 hr 0 min 5 sec) 
Heartbeat CPU 0 instructions: 3000002 cycles: 1051515 heartbeat IPC: 2.85311 cumulative IPC: 2.85303 (Simulation time: 0 hr 0 min 8 sec) 
Heartbeat CPU 0 instructions: 4000001 cycles: 1402012 heartbeat IPC: 2.85309 cumulative IPC: 2.85304 (Simulation time: 0 hr 0 min 10 sec) 
Heartbeat CPU 0 instructions: 5000000 cycles: 1752509 heartbeat IPC: 2.85309 cumulative IPC: 2.85305 (Simulation time: 0 hr 0 min 13 sec) 
Heartbeat CPU 0 instructions: 6000003 cycles: 2103007 heartbeat IPC: 2.85309 cumulative IPC: 2.85306 (Simulation time: 0 hr 0 min 16 sec) 
Heartbeat CPU 0 instructions: 7000002 cycles: 2453506 heartbeat IPC: 2.85307 cumulative IPC: 2.85306 (Simulation time: 0 hr 0 min 18 sec) 
PIN_registerGraphs(random_u18_k3.sg,1)
Graphh Number of Nodes: 262144
Heartbeat CPU 0 instructions: 8000001 cycles: 2802306 heartbeat IPC: 2.86697 cumulative IPC: 2.85479 (Simulation time: 0 hr 0 min 21 sec) 
Heartbeat CPU 0 instructions: 9000001 cycles: 3135640 heartbeat IPC: 2.99999 cumulative IPC: 2.87023 (Simulation time: 0 hr 0 min 22 sec) 
Heartbeat CPU 0 instructions: 10000003 cycles: 3468914 heartbeat IPC: 3.00054 cumulative IPC: 2.88275 (Simulation time: 0 hr 0 min 24 sec) 
Heartbeat CPU 0 instructions: 11000000 cycles: 3802247 heartbeat IPC: 2.99999 cumulative IPC: 2.89303 (Simulation time: 0 hr 0 min 25 sec) 
Heartbeat CPU 0 instructions: 12000000 cycles: 4135581 heartbeat IPC: 2.99999 cumulative IPC: 2.90165 (Simulation time: 0 hr 0 min 26 sec) 
PIN_updateRegBaseBound( 94773131620560, 94773132669136)
updateCurrDst(1)
updateCurrDst(21)
updateCurrDst(429)
updateCurrDst(579)
updateCurrDst(636)
updateCurrDst(727)
updateCurrDst(801)
updateCurrDst(916)
updateCurrDst(918)
updateCurrDst(938)
updateCurrDst(1022)
updateCurrDst(1085)
updateCurrDst(1150)
updateCurrDst(1386)
updateCurrDst(1446)
updateCurrDst(1667)
updateCurrDst(1745)
updateCurrDst(1796)
updateCurrDst(1864)
Heartbeat CPU 0 instructions: 13000001 cycles: 4463454 heartbeat IPC: 3.04996 cumulative IPC: 2.91254 (Simulation time: 0 hr 0 min 29 sec) 
updateCurrDst(1985)
updateCurrDst(2026)
updateCurrDst(2121)
updateCurrDst(2242)
updateCurrDst(2369)
updateCurrDst(2396)
updateCurrDst(2465)
updateCurrDst(2536)
updateCurrDst(2711)
updateCurrDst(2780)
updateCurrDst(2821)
updateCurrDst(2906)
updateCurrDst(2913)
updateCurrDst(2987)
updateCurrDst(3212)
updateCurrDst(3258)
updateCurrDst(3267)
updateCurrDst(3668)
updateCurrDst(3919)
updateCurrDst(3945)
Heartbeat CPU 0 instructions: 14000001 cycles: 4790287 heartbeat IPC: 3.05967 cumulative IPC: 2.92258 (Simulation time: 0 hr 0 min 32 sec) 
updateCurrDst(4005)
updateCurrDst(4037)
updateCurrDst(4052)
updateCurrDst(4093)
updateCurrDst(4242)
updateCurrDst(4263)
updateCurrDst(4296)
updateCurrDst(4592)
updateCurrDst(4606)
updateCurrDst(4651)
updateCurrDst(4704)
updateCurrDst(4846)
updateCurrDst(4996)
updateCurrDst(5247)
updateCurrDst(5296)
updateCurrDst(5315)
updateCurrDst(5339)
updateCurrDst(5640)
updateCurrDst(5662)
updateCurrDst(5768)
updateCurrDst(5810)
updateCurrDst(5824)
updateCurrDst(5846)
updateCurrDst(5860)
updateCurrDst(5869)
updateCurrDst(5928)
updateCurrDst(5938)
updateCurrDst(5957)
updateCurrDst(6063)
Heartbeat CPU 0 instructions: 15000001 cycles: 5116905 heartbeat IPC: 3.06168 cumulative IPC: 2.93146 (Simulation time: 0 hr 0 min 35 sec) 
updateCurrDst(6120)
updateCurrDst(6145)
updateCurrDst(6219)
updateCurrDst(6353)
updateCurrDst(6368)
updateCurrDst(6524)
updateCurrDst(6579)
updateCurrDst(6582)
updateCurrDst(6589)
updateCurrDst(6609)
updateCurrDst(6645)
updateCurrDst(6699)
updateCurrDst(6701)
updateCurrDst(6740)
updateCurrDst(6790)
updateCurrDst(6825)
updateCurrDst(6929)
updateCurrDst(6987)
updateCurrDst(7015)
updateCurrDst(7178)
updateCurrDst(7867)
Heartbeat CPU 0 instructions: 16000001 cycles: 5443548 heartbeat IPC: 3.06145 cumulative IPC: 2.93926 (Simulation time: 0 hr 0 min 38 sec) 
updateCurrDst(8195)
updateCurrDst(8231)
updateCurrDst(8266)
updateCurrDst(8394)
updateCurrDst(8772)
updateCurrDst(9069)
updateCurrDst(9134)
updateCurrDst(9255)
updateCurrDst(9380)
updateCurrDst(9786)
updateCurrDst(9801)
updateCurrDst(9815)
updateCurrDst(9868)
updateCurrDst(9940)
updateCurrDst(9986)
updateCurrDst(10054)
Heartbeat CPU 0 instructions: 17000003 cycles: 5770169 heartbeat IPC: 3.06166 cumulative IPC: 2.94619 (Simulation time: 0 hr 0 min 41 sec) 
updateCurrDst(10384)
updateCurrDst(10408)
updateCurrDst(10474)
updateCurrDst(10624)
updateCurrDst(10695)
updateCurrDst(10714)
updateCurrDst(10733)
updateCurrDst(10799)
updateCurrDst(10993)
updateCurrDst(10996)
updateCurrDst(11270)
updateCurrDst(11335)
updateCurrDst(11472)
updateCurrDst(11580)
updateCurrDst(11769)
updateCurrDst(11882)
updateCurrDst(12098)
updateCurrDst(12184)
updateCurrDst(12246)
Heartbeat CPU 0 instructions: 18000003 cycles: 6096839 heartbeat IPC: 3.06119 cumulative IPC: 2.95235 (Simulation time: 0 hr 0 min 44 sec) 
updateCurrDst(12562)
updateCurrDst(12729)
updateCurrDst(12870)
updateCurrDst(12979)
updateCurrDst(13080)
updateCurrDst(13096)
updateCurrDst(13148)
updateCurrDst(13189)
updateCurrDst(13408)
updateCurrDst(13478)
updateCurrDst(13513)
updateCurrDst(13572)
updateCurrDst(13797)
updateCurrDst(13951)
updateCurrDst(13987)
updateCurrDst(14059)
updateCurrDst(14083)
updateCurrDst(14119)
updateCurrDst(14158)
updateCurrDst(14254)
updateCurrDst(14374)
Heartbeat CPU 0 instructions: 19000001 cycles: 6423584 heartbeat IPC: 3.06048 cumulative IPC: 2.95785 (Simulation time: 0 hr 0 min 47 sec) 
updateCurrDst(14486)
updateCurrDst(14777)
updateCurrDst(15141)
updateCurrDst(15249)
updateCurrDst(15306)
updateCurrDst(15338)
updateCurrDst(15423)
updateCurrDst(15474)
updateCurrDst(15546)
updateCurrDst(15781)
updateCurrDst(15844)
updateCurrDst(15883)
updateCurrDst(16221)
updateCurrDst(16296)
Heartbeat CPU 0 instructions: 20000002 cycles: 6749977 heartbeat IPC: 3.06379 cumulative IPC: 2.96297 (Simulation time: 0 hr 0 min 50 sec) 
updateCurrDst(16534)
updateCurrDst(16682)
updateCurrDst(17182)
updateCurrDst(17257)
updateCurrDst(17523)
updateCurrDst(17683)
updateCurrDst(17690)
updateCurrDst(17718)
updateCurrDst(17719)
updateCurrDst(17809)
updateCurrDst(17849)
updateCurrDst(18061)
updateCurrDst(18062)
updateCurrDst(18284)
updateCurrDst(18311)
updateCurrDst(18328)
Heartbeat CPU 0 instructions: 21000003 cycles: 7076359 heartbeat IPC: 3.0639 cumulative IPC: 2.96763 (Simulation time: 0 hr 0 min 53 sec) 
updateCurrDst(18704)
updateCurrDst(18784)
updateCurrDst(18795)
updateCurrDst(18800)
updateCurrDst(18803)
updateCurrDst(18834)
updateCurrDst(19127)
updateCurrDst(19511)
updateCurrDst(19552)
updateCurrDst(19646)
updateCurrDst(19798)
updateCurrDst(19923)
updateCurrDst(20205)
updateCurrDst(20207)
updateCurrDst(20215)
updateCurrDst(20287)
updateCurrDst(20389)
updateCurrDst(20557)
updateCurrDst(20560)
updateCurrDst(20584)
Heartbeat CPU 0 instructions: 22000000 cycles: 7402955 heartbeat IPC: 3.06188 cumulative IPC: 2.97179 (Simulation time: 0 hr 0 min 56 sec) 
updateCurrDst(20638)
updateCurrDst(20678)
updateCurrDst(20703)
updateCurrDst(20839)
updateCurrDst(20861)
updateCurrDst(21270)
updateCurrDst(21340)
updateCurrDst(21368)
updateCurrDst(21392)
updateCurrDst(21466)
updateCurrDst(21471)
updateCurrDst(21621)
updateCurrDst(21794)
updateCurrDst(21815)
updateCurrDst(21903)
updateCurrDst(22142)
updateCurrDst(22154)
updateCurrDst(22170)
updateCurrDst(22374)
updateCurrDst(22626)
Heartbeat CPU 0 instructions: 23000000 cycles: 7729608 heartbeat IPC: 3.06135 cumulative IPC: 2.97557 (Simulation time: 0 hr 0 min 59 sec) 
updateCurrDst(23112)
updateCurrDst(23361)
updateCurrDst(23397)
updateCurrDst(23449)
updateCurrDst(23766)
updateCurrDst(23919)
updateCurrDst(23959)
updateCurrDst(24020)
updateCurrDst(24110)
updateCurrDst(24209)
updateCurrDst(24259)
updateCurrDst(24280)
updateCurrDst(24290)
updateCurrDst(24452)
updateCurrDst(24456)
Heartbeat CPU 0 instructions: 24000003 cycles: 8055997 heartbeat IPC: 3.06384 cumulative IPC: 2.97915 (Simulation time: 0 hr 1 min 2 sec) 
updateCurrDst(24779)
updateCurrDst(24836)
updateCurrDst(24903)
updateCurrDst(25020)
updateCurrDst(25053)
updateCurrDst(25193)
updateCurrDst(25194)
updateCurrDst(25230)
updateCurrDst(25504)
updateCurrDst(25527)
updateCurrDst(25540)
updateCurrDst(25739)
updateCurrDst(25844)
updateCurrDst(25878)
updateCurrDst(25893)
updateCurrDst(25916)
updateCurrDst(25942)
updateCurrDst(26059)
updateCurrDst(26086)
updateCurrDst(26132)
updateCurrDst(26183)
updateCurrDst(26249)
updateCurrDst(26331)
updateCurrDst(26341)
updateCurrDst(26673)
updateCurrDst(26757)
Heartbeat CPU 0 instructions: 25000002 cycles: 8382475 heartbeat IPC: 3.06299 cumulative IPC: 2.98241 (Simulation time: 0 hr 1 min 5 sec) 
updateCurrDst(26886)
updateCurrDst(26890)
updateCurrDst(26922)
updateCurrDst(27006)
updateCurrDst(27014)
updateCurrDst(27027)
updateCurrDst(27434)
updateCurrDst(27697)
updateCurrDst(27714)
updateCurrDst(27782)
updateCurrDst(27783)
updateCurrDst(27933)
updateCurrDst(28130)
updateCurrDst(28212)
updateCurrDst(28215)
updateCurrDst(28216)
updateCurrDst(28246)
updateCurrDst(28270)
updateCurrDst(28469)
updateCurrDst(28555)
updateCurrDst(28562)
Heartbeat CPU 0 instructions: 26000001 cycles: 8708899 heartbeat IPC: 3.0635 cumulative IPC: 2.98545 (Simulation time: 0 hr 1 min 9 sec) 
updateCurrDst(29086)
updateCurrDst(29087)
updateCurrDst(29258)
updateCurrDst(29301)
updateCurrDst(29398)
updateCurrDst(29492)
updateCurrDst(29545)
updateCurrDst(29718)
updateCurrDst(29843)
updateCurrDst(29985)
updateCurrDst(30193)
updateCurrDst(30333)
updateCurrDst(30335)
updateCurrDst(30493)
updateCurrDst(30585)
updateCurrDst(30655)
updateCurrDst(30888)
Heartbeat CPU 0 instructions: 27000002 cycles: 9035224 heartbeat IPC: 3.06443 cumulative IPC: 2.9883 (Simulation time: 0 hr 1 min 12 sec) 
updateCurrDst(31206)
updateCurrDst(31211)
updateCurrDst(31284)
updateCurrDst(31374)
updateCurrDst(31386)
updateCurrDst(31418)
updateCurrDst(31420)
updateCurrDst(31631)
updateCurrDst(31807)
updateCurrDst(31981)
updateCurrDst(31983)
updateCurrDst(32349)
updateCurrDst(32379)
updateCurrDst(32494)
updateCurrDst(32534)
updateCurrDst(32585)
updateCurrDst(32593)
updateCurrDst(32856)
updateCurrDst(33029)
updateCurrDst(33031)
Heartbeat CPU 0 instructions: 28000003 cycles: 9361633 heartbeat IPC: 3.06364 cumulative IPC: 2.99093 (Simulation time: 0 hr 1 min 15 sec) 
updateCurrDst(33060)
updateCurrDst(33193)
updateCurrDst(33278)
updateCurrDst(33297)
updateCurrDst(33328)
updateCurrDst(33461)
updateCurrDst(33528)
updateCurrDst(33651)
updateCurrDst(33829)
updateCurrDst(33981)
updateCurrDst(34197)
updateCurrDst(34255)
updateCurrDst(34368)
updateCurrDst(34369)
updateCurrDst(34425)
updateCurrDst(34453)
updateCurrDst(34542)
updateCurrDst(34557)
updateCurrDst(34952)
updateCurrDst(35038)
updateCurrDst(35102)
Heartbeat CPU 0 instructions: 29000001 cycles: 9688262 heartbeat IPC: 3.06157 cumulative IPC: 2.99331 (Simulation time: 0 hr 1 min 18 sec) 
updateCurrDst(35312)
updateCurrDst(35502)
updateCurrDst(35646)
updateCurrDst(36336)
updateCurrDst(36363)
updateCurrDst(36633)
updateCurrDst(36760)
updateCurrDst(36769)
updateCurrDst(36782)
updateCurrDst(36855)
updateCurrDst(36919)
updateCurrDst(36953)
updateCurrDst(36997)
updateCurrDst(37006)
updateCurrDst(37158)
Heartbeat CPU 0 instructions: 30000001 cycles: 10014613 heartbeat IPC: 3.06419 cumulative IPC: 2.99562 (Simulation time: 0 hr 1 min 21 sec) 
updateCurrDst(37255)
updateCurrDst(37406)
updateCurrDst(37439)
updateCurrDst(37477)
updateCurrDst(37529)
updateCurrDst(37750)
updateCurrDst(37811)
updateCurrDst(37830)
updateCurrDst(37911)
updateCurrDst(38034)
updateCurrDst(38297)
updateCurrDst(38408)
updateCurrDst(38426)
updateCurrDst(38436)
updateCurrDst(38809)
updateCurrDst(38818)
updateCurrDst(38886)
updateCurrDst(38918)
updateCurrDst(39131)
updateCurrDst(39259)
Heartbeat CPU 0 instructions: 31000000 cycles: 10341144 heartbeat IPC: 3.06249 cumulative IPC: 2.99773 (Simulation time: 0 hr 1 min 24 sec) 
updateCurrDst(39412)
updateCurrDst(39722)
updateCurrDst(39751)
updateCurrDst(39795)
updateCurrDst(39931)
updateCurrDst(39944)
updateCurrDst(39960)
updateCurrDst(39967)
updateCurrDst(40210)
updateCurrDst(40464)
updateCurrDst(40487)
updateCurrDst(40629)
updateCurrDst(40761)
updateCurrDst(40839)
updateCurrDst(40875)
updateCurrDst(40915)
updateCurrDst(40922)
updateCurrDst(40927)
updateCurrDst(40989)
updateCurrDst(41072)
updateCurrDst(41073)
updateCurrDst(41091)
updateCurrDst(41269)
updateCurrDst(41290)
Heartbeat CPU 0 instructions: 32000003 cycles: 10667493 heartbeat IPC: 3.06421 cumulative IPC: 2.99977 (Simulation time: 0 hr 1 min 27 sec) 
updateCurrDst(41502)
updateCurrDst(41700)
updateCurrDst(41731)
updateCurrDst(41742)
updateCurrDst(41745)
updateCurrDst(41993)
updateCurrDst(42065)
updateCurrDst(42130)
updateCurrDst(42150)
updateCurrDst(42312)
updateCurrDst(42438)
updateCurrDst(42596)
updateCurrDst(42902)
updateCurrDst(42940)
updateCurrDst(43348)
Heartbeat CPU 0 instructions: 33000000 cycles: 10993962 heartbeat IPC: 3.06307 cumulative IPC: 3.00165 (Simulation time: 0 hr 1 min 31 sec) 
updateCurrDst(43575)
updateCurrDst(43628)
updateCurrDst(43656)
updateCurrDst(43674)
updateCurrDst(43704)
updateCurrDst(43788)
updateCurrDst(43895)
updateCurrDst(43994)
updateCurrDst(44050)
updateCurrDst(44084)
updateCurrDst(44099)
updateCurrDst(44129)
updateCurrDst(44265)
updateCurrDst(44295)
updateCurrDst(44483)
updateCurrDst(44587)
updateCurrDst(44597)
updateCurrDst(44718)
updateCurrDst(44757)
updateCurrDst(44850)
updateCurrDst(44880)
updateCurrDst(44899)
updateCurrDst(44937)
updateCurrDst(45051)
updateCurrDst(45085)
updateCurrDst(45152)
updateCurrDst(45192)
updateCurrDst(45213)
updateCurrDst(45242)
updateCurrDst(45366)
updateCurrDst(45463)
Heartbeat CPU 0 instructions: 34000001 cycles: 11320651 heartbeat IPC: 3.06102 cumulative IPC: 3.00336 (Simulation time: 0 hr 1 min 34 sec) 
updateCurrDst(45578)
updateCurrDst(45584)
updateCurrDst(45661)
updateCurrDst(45690)
updateCurrDst(45803)
updateCurrDst(45834)
updateCurrDst(45931)
updateCurrDst(45949)
updateCurrDst(46002)
updateCurrDst(46174)
updateCurrDst(46236)
updateCurrDst(46377)
updateCurrDst(46418)
updateCurrDst(46620)
updateCurrDst(46630)
updateCurrDst(46679)
updateCurrDst(46735)
updateCurrDst(46812)
updateCurrDst(46932)
updateCurrDst(46974)
updateCurrDst(47019)
updateCurrDst(47076)
updateCurrDst(47244)
updateCurrDst(47263)
updateCurrDst(47293)
updateCurrDst(47468)
Heartbeat CPU 0 instructions: 35000000 cycles: 11647218 heartbeat IPC: 3.06216 cumulative IPC: 3.00501 (Simulation time: 0 hr 1 min 37 sec) 
updateCurrDst(47603)
updateCurrDst(47627)
updateCurrDst(47747)
updateCurrDst(47851)
updateCurrDst(47876)
updateCurrDst(47907)
updateCurrDst(48233)
updateCurrDst(48270)
updateCurrDst(48281)
updateCurrDst(48532)
updateCurrDst(48598)
updateCurrDst(48756)
updateCurrDst(48946)
updateCurrDst(49131)
updateCurrDst(49137)
updateCurrDst(49172)
updateCurrDst(49219)
updateCurrDst(49418)
updateCurrDst(49452)
updateCurrDst(49467)
updateCurrDst(49488)
updateCurrDst(49496)
Heartbeat CPU 0 instructions: 36000003 cycles: 11973599 heartbeat IPC: 3.06391 cumulative IPC: 3.00662 (Simulation time: 0 hr 1 min 40 sec) 
updateCurrDst(49847)
updateCurrDst(49929)
updateCurrDst(49943)
updateCurrDst(50025)
updateCurrDst(50191)
updateCurrDst(50260)
updateCurrDst(50274)
updateCurrDst(50350)
updateCurrDst(50506)
updateCurrDst(50572)
updateCurrDst(50618)
updateCurrDst(50687)
updateCurrDst(50791)
updateCurrDst(50880)
updateCurrDst(50886)
updateCurrDst(50891)
updateCurrDst(51055)
updateCurrDst(51170)
updateCurrDst(51323)
updateCurrDst(51564)
updateCurrDst(51605)
Heartbeat CPU 0 instructions: 37000001 cycles: 12300260 heartbeat IPC: 3.06127 cumulative IPC: 3.00807 (Simulation time: 0 hr 1 min 43 sec) 
updateCurrDst(51856)
updateCurrDst(52045)
updateCurrDst(52061)
updateCurrDst(52067)
updateCurrDst(52103)
updateCurrDst(52242)
updateCurrDst(52401)
updateCurrDst(52703)
updateCurrDst(52814)
updateCurrDst(53025)
updateCurrDst(53027)
updateCurrDst(53072)
updateCurrDst(53088)
updateCurrDst(53177)
updateCurrDst(53357)
updateCurrDst(53365)
updateCurrDst(53563)
updateCurrDst(53727)
Heartbeat CPU 0 instructions: 38000000 cycles: 12626651 heartbeat IPC: 3.06381 cumulative IPC: 3.00951 (Simulation time: 0 hr 1 min 46 sec) 
updateCurrDst(53940)
updateCurrDst(54011)
updateCurrDst(54014)
updateCurrDst(54268)
updateCurrDst(54432)
updateCurrDst(54545)
updateCurrDst(54764)
updateCurrDst(54961)
updateCurrDst(55024)
updateCurrDst(55026)
updateCurrDst(55118)
updateCurrDst(55318)
updateCurrDst(55371)
updateCurrDst(55647)
updateCurrDst(55659)
updateCurrDst(55767)
updateCurrDst(55810)
Heartbeat CPU 0 instructions: 39000001 cycles: 12953229 heartbeat IPC: 3.06206 cumulative IPC: 3.01083 (Simulation time: 0 hr 1 min 49 sec) 
updateCurrDst(56013)
updateCurrDst(56069)
updateCurrDst(56497)
updateCurrDst(56559)
updateCurrDst(57246)
updateCurrDst(57273)
updateCurrDst(57287)
updateCurrDst(57316)
updateCurrDst(57388)
updateCurrDst(57575)
updateCurrDst(57597)
updateCurrDst(57663)
updateCurrDst(57725)
updateCurrDst(57761)
updateCurrDst(57828)
updateCurrDst(57905)
Heartbeat CPU 0 instructions: 40000000 cycles: 13279584 heartbeat IPC: 3.06414 cumulative IPC: 3.01214 (Simulation time: 0 hr 1 min 52 sec) 
updateCurrDst(57999)
updateCurrDst(58042)
updateCurrDst(58098)
updateCurrDst(58167)
updateCurrDst(58365)
updateCurrDst(58455)
updateCurrDst(58529)
updateCurrDst(58654)
updateCurrDst(58962)
updateCurrDst(59691)
updateCurrDst(59694)
updateCurrDst(59816)
updateCurrDst(59933)
Heartbeat CPU 0 instructions: 41000001 cycles: 13606122 heartbeat IPC: 3.06243 cumulative IPC: 3.01335 (Simulation time: 0 hr 1 min 55 sec) 
updateCurrDst(60055)
updateCurrDst(60083)
updateCurrDst(60306)
updateCurrDst(60392)
updateCurrDst(60412)
updateCurrDst(60425)
updateCurrDst(60485)
updateCurrDst(60638)
updateCurrDst(60772)
updateCurrDst(60987)
updateCurrDst(61037)
updateCurrDst(61192)
updateCurrDst(61746)
updateCurrDst(61997)
updateCurrDst(62027)
updateCurrDst(62037)
updateCurrDst(62060)
updateCurrDst(62080)
Heartbeat CPU 0 instructions: 42000001 cycles: 13932443 heartbeat IPC: 3.06447 cumulative IPC: 3.01455 (Simulation time: 0 hr 1 min 59 sec) 
updateCurrDst(62166)
updateCurrDst(62270)
updateCurrDst(62356)
updateCurrDst(62507)
updateCurrDst(62529)
updateCurrDst(62554)
updateCurrDst(62722)
updateCurrDst(62791)
updateCurrDst(62983)
updateCurrDst(63082)
updateCurrDst(63131)
updateCurrDst(63168)
updateCurrDst(63351)
updateCurrDst(63355)
updateCurrDst(63432)
updateCurrDst(63741)
updateCurrDst(63857)
updateCurrDst(63973)
updateCurrDst(64060)
updateCurrDst(64107)
Heartbeat CPU 0 instructions: 43000000 cycles: 14259004 heartbeat IPC: 3.06221 cumulative IPC: 3.01564 (Simulation time: 0 hr 2 min 2 sec) 
updateCurrDst(64185)
updateCurrDst(64231)
updateCurrDst(64234)
updateCurrDst(64411)
updateCurrDst(64468)
updateCurrDst(64765)
updateCurrDst(64785)
updateCurrDst(64821)
updateCurrDst(64826)
updateCurrDst(64947)
updateCurrDst(65126)
updateCurrDst(65164)
updateCurrDst(65370)
updateCurrDst(65440)
updateCurrDst(65564)
updateCurrDst(65596)
updateCurrDst(65671)
updateCurrDst(65846)
updateCurrDst(65998)
updateCurrDst(66041)
updateCurrDst(66128)
updateCurrDst(66200)
updateCurrDst(66214)
Heartbeat CPU 0 instructions: 44000000 cycles: 14585749 heartbeat IPC: 3.06049 cumulative IPC: 3.01664 (Simulation time: 0 hr 2 min 5 sec) 
updateCurrDst(66320)
updateCurrDst(66437)
updateCurrDst(66564)
updateCurrDst(66853)
updateCurrDst(66942)
updateCurrDst(67051)
updateCurrDst(67198)
updateCurrDst(67300)
updateCurrDst(67398)
updateCurrDst(67564)
updateCurrDst(67719)
updateCurrDst(67766)
updateCurrDst(67776)
updateCurrDst(67824)
updateCurrDst(67855)
updateCurrDst(67883)
updateCurrDst(68063)
updateCurrDst(68086)
updateCurrDst(68216)
updateCurrDst(68217)
updateCurrDst(68316)
Heartbeat CPU 0 instructions: 45000000 cycles: 14912368 heartbeat IPC: 3.06167 cumulative IPC: 3.01763 (Simulation time: 0 hr 2 min 8 sec) 
updateCurrDst(68512)
updateCurrDst(68649)
updateCurrDst(69057)
updateCurrDst(69089)
updateCurrDst(69447)
updateCurrDst(69583)
updateCurrDst(69612)
updateCurrDst(69747)
updateCurrDst(69751)
updateCurrDst(69789)
updateCurrDst(69838)
updateCurrDst(70058)
updateCurrDst(70108)
updateCurrDst(70236)
Heartbeat CPU 0 instructions: 46000000 cycles: 15238675 heartbeat IPC: 3.0646 cumulative IPC: 3.01864 (Simulation time: 0 hr 2 min 11 sec) 
updateCurrDst(70457)
updateCurrDst(70644)
updateCurrDst(70654)
updateCurrDst(70873)
updateCurrDst(71165)
updateCurrDst(71172)
updateCurrDst(71269)
updateCurrDst(71336)
updateCurrDst(71397)
updateCurrDst(71430)
updateCurrDst(71513)
updateCurrDst(71573)
updateCurrDst(71816)
updateCurrDst(71859)
updateCurrDst(72062)
updateCurrDst(72184)
updateCurrDst(72307)
updateCurrDst(72475)
Heartbeat CPU 0 instructions: 47000002 cycles: 15564863 heartbeat IPC: 3.06572 cumulative IPC: 3.01962 (Simulation time: 0 hr 2 min 14 sec) 
updateCurrDst(72521)
updateCurrDst(72648)
updateCurrDst(72668)
updateCurrDst(72758)
updateCurrDst(72941)
updateCurrDst(72991)
updateCurrDst(73018)
updateCurrDst(73061)
updateCurrDst(73115)
updateCurrDst(73351)
updateCurrDst(73447)
updateCurrDst(73500)
updateCurrDst(73759)
updateCurrDst(73821)
updateCurrDst(73935)
updateCurrDst(74164)
updateCurrDst(74393)
Heartbeat CPU 0 instructions: 48000002 cycles: 15891493 heartbeat IPC: 3.06157 cumulative IPC: 3.02048 (Simulation time: 0 hr 2 min 17 sec) 
updateCurrDst(74951)
updateCurrDst(75075)
updateCurrDst(75154)
updateCurrDst(75243)
updateCurrDst(75347)
updateCurrDst(75563)
updateCurrDst(75574)
updateCurrDst(75722)
updateCurrDst(75774)
updateCurrDst(75859)
updateCurrDst(76049)
updateCurrDst(76070)
updateCurrDst(76128)
updateCurrDst(76307)
updateCurrDst(76594)
Heartbeat CPU 0 instructions: 49000003 cycles: 16217829 heartbeat IPC: 3.06433 cumulative IPC: 3.02137 (Simulation time: 0 hr 2 min 21 sec) 
updateCurrDst(76675)
updateCurrDst(77220)
updateCurrDst(77461)
updateCurrDst(77469)
updateCurrDst(77760)
updateCurrDst(77762)
updateCurrDst(78053)
updateCurrDst(78089)
updateCurrDst(78164)
updateCurrDst(78205)
updateCurrDst(78356)
updateCurrDst(78383)
updateCurrDst(78466)
updateCurrDst(78557)
updateCurrDst(78673)
Heartbeat CPU 0 instructions: 50000000 cycles: 16544369 heartbeat IPC: 3.0624 cumulative IPC: 3.02218 (Simulation time: 0 hr 2 min 24 sec) 
updateCurrDst(78724)
updateCurrDst(78951)
updateCurrDst(78996)
updateCurrDst(79016)
updateCurrDst(79081)
updateCurrDst(79180)
updateCurrDst(79233)
updateCurrDst(79526)
updateCurrDst(79640)
updateCurrDst(79673)
updateCurrDst(79715)
updateCurrDst(79865)
updateCurrDst(79887)
updateCurrDst(79961)
updateCurrDst(80017)
updateCurrDst(80400)
updateCurrDst(80520)
updateCurrDst(80536)
updateCurrDst(80573)
updateCurrDst(80630)
updateCurrDst(80678)
updateCurrDst(80715)
Heartbeat CPU 0 instructions: 51000003 cycles: 16870656 heartbeat IPC: 3.0648 cumulative IPC: 3.023 (Simulation time: 0 hr 2 min 27 sec) 
updateCurrDst(80801)
updateCurrDst(80889)
updateCurrDst(80941)
updateCurrDst(81018)
updateCurrDst(81233)
updateCurrDst(81257)
updateCurrDst(81316)
updateCurrDst(81420)
updateCurrDst(81625)
updateCurrDst(81691)
updateCurrDst(81705)
updateCurrDst(81758)
updateCurrDst(81815)
updateCurrDst(81837)
updateCurrDst(81909)
updateCurrDst(82059)
updateCurrDst(82074)
updateCurrDst(82099)
updateCurrDst(82177)
updateCurrDst(82195)
updateCurrDst(82436)
updateCurrDst(82520)
updateCurrDst(82530)
updateCurrDst(82547)
updateCurrDst(82549)
updateCurrDst(82575)
updateCurrDst(82644)
updateCurrDst(82675)
Heartbeat CPU 0 instructions: 52000001 cycles: 17197156 heartbeat IPC: 3.06278 cumulative IPC: 3.02376 (Simulation time: 0 hr 2 min 31 sec) 
updateCurrDst(82900)
updateCurrDst(83142)
updateCurrDst(83156)
updateCurrDst(83186)
updateCurrDst(83345)
updateCurrDst(83354)
updateCurrDst(83405)
updateCurrDst(83482)
updateCurrDst(83737)
updateCurrDst(83776)
updateCurrDst(83990)
updateCurrDst(84164)
updateCurrDst(84257)
updateCurrDst(84335)
updateCurrDst(84480)
updateCurrDst(84649)
updateCurrDst(84799)
updateCurrDst(84900)
Heartbeat CPU 0 instructions: 53000003 cycles: 17523724 heartbeat IPC: 3.06216 cumulative IPC: 3.02447 (Simulation time: 0 hr 2 min 34 sec) 
updateCurrDst(85055)
updateCurrDst(85059)
updateCurrDst(85266)
updateCurrDst(85272)
updateCurrDst(85362)
updateCurrDst(85757)
updateCurrDst(85866)
updateCurrDst(85893)
updateCurrDst(85940)
updateCurrDst(86040)
updateCurrDst(86064)
updateCurrDst(86090)
updateCurrDst(86188)
updateCurrDst(86205)
updateCurrDst(86366)
updateCurrDst(86630)
updateCurrDst(86646)
updateCurrDst(86687)
updateCurrDst(86763)
updateCurrDst(86765)
Heartbeat CPU 0 instructions: 54000000 cycles: 17850131 heartbeat IPC: 3.06365 cumulative IPC: 3.02519 (Simulation time: 0 hr 2 min 37 sec) 
updateCurrDst(87119)
updateCurrDst(87226)
updateCurrDst(87345)
updateCurrDst(87360)
updateCurrDst(87433)
updateCurrDst(87505)
updateCurrDst(87527)
updateCurrDst(87657)
updateCurrDst(88218)
updateCurrDst(88330)
updateCurrDst(88403)
updateCurrDst(88405)
updateCurrDst(88428)
updateCurrDst(88519)
updateCurrDst(88539)
updateCurrDst(88542)
updateCurrDst(88718)
updateCurrDst(88719)
updateCurrDst(88764)
updateCurrDst(88794)
updateCurrDst(88845)
updateCurrDst(88961)
Heartbeat CPU 0 instructions: 55000000 cycles: 18176856 heartbeat IPC: 3.06068 cumulative IPC: 3.02583 (Simulation time: 0 hr 2 min 40 sec) 
updateCurrDst(89177)
updateCurrDst(89201)
updateCurrDst(89328)
updateCurrDst(89415)
updateCurrDst(89424)
updateCurrDst(89438)
updateCurrDst(89451)
updateCurrDst(89485)
updateCurrDst(89487)
updateCurrDst(89639)
updateCurrDst(89670)
updateCurrDst(89718)
updateCurrDst(89728)
updateCurrDst(89771)
updateCurrDst(89839)
updateCurrDst(89870)
updateCurrDst(89990)
updateCurrDst(90006)
updateCurrDst(90365)
updateCurrDst(90638)
updateCurrDst(90642)
updateCurrDst(90689)
updateCurrDst(90834)
Heartbeat CPU 0 instructions: 56000000 cycles: 18503507 heartbeat IPC: 3.06137 cumulative IPC: 3.02645 (Simulation time: 0 hr 2 min 43 sec) 
updateCurrDst(91220)
updateCurrDst(91376)
updateCurrDst(91528)
updateCurrDst(91530)
updateCurrDst(91559)
updateCurrDst(91730)
updateCurrDst(91889)
updateCurrDst(91917)
updateCurrDst(92242)
updateCurrDst(92339)
updateCurrDst(92575)
updateCurrDst(92747)
updateCurrDst(92882)
updateCurrDst(93192)
updateCurrDst(93231)
Heartbeat CPU 0 instructions: 57000001 cycles: 18829613 heartbeat IPC: 3.06649 cumulative IPC: 3.02715 (Simulation time: 0 hr 2 min 46 sec) 
updateCurrDst(93376)
updateCurrDst(93498)
updateCurrDst(93633)
updateCurrDst(93763)
updateCurrDst(93877)
updateCurrDst(94043)
updateCurrDst(94136)
updateCurrDst(94216)
updateCurrDst(94235)
updateCurrDst(94272)
updateCurrDst(94273)
updateCurrDst(94333)
updateCurrDst(94550)
updateCurrDst(94598)
updateCurrDst(94645)
updateCurrDst(94678)
updateCurrDst(94724)
updateCurrDst(94734)
updateCurrDst(94844)
updateCurrDst(94938)
updateCurrDst(94978)
updateCurrDst(95050)
Heartbeat CPU 0 instructions: 58000000 cycles: 19156024 heartbeat IPC: 3.06362 cumulative IPC: 3.02777 (Simulation time: 0 hr 2 min 49 sec) 
updateCurrDst(95654)
updateCurrDst(95841)
updateCurrDst(95852)
updateCurrDst(95950)
updateCurrDst(95972)
updateCurrDst(96065)
updateCurrDst(96098)
updateCurrDst(96201)
updateCurrDst(96302)
updateCurrDst(96314)
updateCurrDst(96376)
updateCurrDst(96461)
updateCurrDst(96477)
updateCurrDst(96493)
updateCurrDst(96740)
updateCurrDst(96755)
updateCurrDst(96799)
updateCurrDst(96822)
updateCurrDst(96840)
updateCurrDst(97029)
updateCurrDst(97239)
updateCurrDst(97317)
Heartbeat CPU 0 instructions: 59000002 cycles: 19482585 heartbeat IPC: 3.06222 cumulative IPC: 3.02835 (Simulation time: 0 hr 2 min 53 sec) 
updateCurrDst(97578)
updateCurrDst(97608)
updateCurrDst(97829)
updateCurrDst(98335)
updateCurrDst(98445)
updateCurrDst(98538)
updateCurrDst(98758)
updateCurrDst(98786)
updateCurrDst(98825)
updateCurrDst(98873)
updateCurrDst(98975)
updateCurrDst(99042)
updateCurrDst(99098)
updateCurrDst(99178)
updateCurrDst(99266)
updateCurrDst(99323)
updateCurrDst(99324)
updateCurrDst(99372)
updateCurrDst(99388)
updateCurrDst(99458)
updateCurrDst(99466)
Heartbeat CPU 0 instructions: 60000001 cycles: 19809274 heartbeat IPC: 3.06101 cumulative IPC: 3.02888 (Simulation time: 0 hr 2 min 56 sec) 
updateCurrDst(99597)
updateCurrDst(99608)
updateCurrDst(99622)
updateCurrDst(99760)
updateCurrDst(99790)
updateCurrDst(99870)
updateCurrDst(100011)
updateCurrDst(100033)
updateCurrDst(100051)
updateCurrDst(100075)
updateCurrDst(100200)
updateCurrDst(100316)
updateCurrDst(100485)
updateCurrDst(100506)
updateCurrDst(100537)
updateCurrDst(100872)
updateCurrDst(100877)
updateCurrDst(100893)
updateCurrDst(101100)
updateCurrDst(101278)
updateCurrDst(101416)
updateCurrDst(101473)
Heartbeat CPU 0 instructions: 61000000 cycles: 20136187 heartbeat IPC: 3.05891 cumulative IPC: 3.02937 (Simulation time: 0 hr 2 min 59 sec) 
updateCurrDst(101791)
updateCurrDst(101876)
updateCurrDst(101912)
updateCurrDst(102475)
updateCurrDst(102679)
updateCurrDst(102819)
updateCurrDst(102875)
updateCurrDst(103139)
updateCurrDst(103243)
updateCurrDst(103290)
updateCurrDst(103320)
updateCurrDst(103472)
Heartbeat CPU 0 instructions: 62000000 cycles: 20462752 heartbeat IPC: 3.06218 cumulative IPC: 3.0299 (Simulation time: 0 hr 3 min 2 sec) 
updateCurrDst(103688)
updateCurrDst(103879)
updateCurrDst(103961)
updateCurrDst(104063)
updateCurrDst(104094)
updateCurrDst(104169)
updateCurrDst(104199)
updateCurrDst(104224)
updateCurrDst(104268)
updateCurrDst(104767)
updateCurrDst(104856)
updateCurrDst(105048)
updateCurrDst(105090)
updateCurrDst(105091)
updateCurrDst(105190)
updateCurrDst(105216)
updateCurrDst(105368)
updateCurrDst(105566)
updateCurrDst(105646)
updateCurrDst(105657)
updateCurrDst(105669)
Heartbeat CPU 0 instructions: 63000003 cycles: 20789229 heartbeat IPC: 3.06301 cumulative IPC: 3.03042 (Simulation time: 0 hr 3 min 5 sec) 
updateCurrDst(105782)
updateCurrDst(105846)
updateCurrDst(106035)
updateCurrDst(106136)
updateCurrDst(106230)
updateCurrDst(106258)
updateCurrDst(106259)
updateCurrDst(106450)
updateCurrDst(106473)
updateCurrDst(106634)
updateCurrDst(106650)
updateCurrDst(106964)
updateCurrDst(106980)
updateCurrDst(107094)
updateCurrDst(107130)
updateCurrDst(107198)
updateCurrDst(107228)
updateCurrDst(107301)
updateCurrDst(107397)
updateCurrDst(107529)
updateCurrDst(107547)
updateCurrDst(107563)
updateCurrDst(107635)
updateCurrDst(107779)
updateCurrDst(107842)
Heartbeat CPU 0 instructions: 64000000 cycles: 21115755 heartbeat IPC: 3.06253 cumulative IPC: 3.03091 (Simulation time: 0 hr 3 min 8 sec) 
updateCurrDst(108041)
updateCurrDst(108151)
updateCurrDst(108222)
updateCurrDst(108551)
updateCurrDst(108565)
updateCurrDst(108861)
updateCurrDst(108926)
updateCurrDst(109245)
updateCurrDst(109271)
updateCurrDst(109428)
updateCurrDst(109450)
updateCurrDst(109451)
updateCurrDst(109567)
updateCurrDst(109744)
Heartbeat CPU 0 instructions: 65000003 cycles: 21442227 heartbeat IPC: 3.06306 cumulative IPC: 3.0314 (Simulation time: 0 hr 3 min 12 sec) 
updateCurrDst(110042)
updateCurrDst(110062)
updateCurrDst(110206)
updateCurrDst(110264)
updateCurrDst(110289)
updateCurrDst(110404)
updateCurrDst(110603)
updateCurrDst(110609)
updateCurrDst(110754)
updateCurrDst(110807)
updateCurrDst(110856)
updateCurrDst(110955)
updateCurrDst(110997)
updateCurrDst(111028)
updateCurrDst(111033)
updateCurrDst(111083)
updateCurrDst(111140)
updateCurrDst(111178)
updateCurrDst(111360)
updateCurrDst(111363)
updateCurrDst(111535)
updateCurrDst(111701)
updateCurrDst(111822)
updateCurrDst(111991)
updateCurrDst(111997)
Heartbeat CPU 0 instructions: 66000000 cycles: 21768796 heartbeat IPC: 3.06213 cumulative IPC: 3.03186 (Simulation time: 0 hr 3 min 15 sec) 
updateCurrDst(112031)
updateCurrDst(112123)
updateCurrDst(112166)
updateCurrDst(112266)
updateCurrDst(112300)
updateCurrDst(112310)
updateCurrDst(112447)
updateCurrDst(112519)
updateCurrDst(112540)
updateCurrDst(112594)
updateCurrDst(112677)
updateCurrDst(112728)
updateCurrDst(112876)
updateCurrDst(112880)
updateCurrDst(112907)
updateCurrDst(113122)
updateCurrDst(113148)
updateCurrDst(113548)
updateCurrDst(113745)
updateCurrDst(113851)
updateCurrDst(113995)
Heartbeat CPU 0 instructions: 67000002 cycles: 22095283 heartbeat IPC: 3.06292 cumulative IPC: 3.03232 (Simulation time: 0 hr 3 min 18 sec) 
updateCurrDst(114120)
updateCurrDst(114253)
updateCurrDst(114402)
updateCurrDst(114628)
updateCurrDst(114641)
updateCurrDst(114894)
updateCurrDst(114945)
updateCurrDst(114961)
updateCurrDst(114992)
updateCurrDst(115241)
updateCurrDst(115274)
updateCurrDst(115389)
updateCurrDst(115410)
updateCurrDst(115533)
updateCurrDst(115998)
updateCurrDst(116089)
Heartbeat CPU 0 instructions: 68000000 cycles: 22421826 heartbeat IPC: 3.06238 cumulative IPC: 3.03276 (Simulation time: 0 hr 3 min 21 sec) 
updateCurrDst(116238)
updateCurrDst(116369)
updateCurrDst(116385)
updateCurrDst(116437)
updateCurrDst(116484)
updateCurrDst(116566)
updateCurrDst(117025)
updateCurrDst(117102)
updateCurrDst(117142)
updateCurrDst(117348)
updateCurrDst(117578)
updateCurrDst(117639)
updateCurrDst(117684)
updateCurrDst(117758)
updateCurrDst(117800)
updateCurrDst(117819)
updateCurrDst(117834)
updateCurrDst(118171)
updateCurrDst(118179)
updateCurrDst(118202)
updateCurrDst(118208)
updateCurrDst(118254)
Heartbeat CPU 0 instructions: 69000001 cycles: 22748221 heartbeat IPC: 3.06378 cumulative IPC: 3.0332 (Simulation time: 0 hr 3 min 24 sec) 

Warmup complete CPU 0 instructions: 69000001 cycles: 22748221 (Simulation time: 0 hr 3 min 24 sec) 

updateCurrDst(118288)
updateCurrDst(118381)
updateCurrDst(118400)
updateCurrDst(118506)
updateCurrDst(118540)
updateCurrDst(118600)
updateCurrDst(118653)
updateCurrDst(118681)
updateCurrDst(118745)
updateCurrDst(118958)
updateCurrDst(119079)
updateCurrDst(119124)
updateCurrDst(119201)
updateCurrDst(119277)
updateCurrDst(119295)
updateCurrDst(119447)
updateCurrDst(119451)
updateCurrDst(119536)
updateCurrDst(119684)
updateCurrDst(119701)
updateCurrDst(119770)
updateCurrDst(119782)
updateCurrDst(120135)
updateCurrDst(120136)
updateCurrDst(120190)
updateCurrDst(120201)
updateCurrDst(120242)
updateCurrDst(120258)
updateCurrDst(120272)
updateCurrDst(120273)
updateCurrDst(120283)
updateCurrDst(120304)
Heartbeat CPU 0 instructions: 70000003 cycles: 25856178 heartbeat IPC: 0.321755 cumulative IPC: 0.321755 (Simulation time: 0 hr 3 min 29 sec) 
updateCurrDst(120430)
updateCurrDst(120494)
updateCurrDst(120586)
updateCurrDst(120646)
updateCurrDst(120650)
updateCurrDst(120702)
updateCurrDst(120783)
updateCurrDst(121056)
updateCurrDst(121057)
updateCurrDst(121081)
updateCurrDst(121168)
updateCurrDst(121279)
updateCurrDst(121399)
updateCurrDst(121625)
updateCurrDst(121772)
updateCurrDst(121830)
updateCurrDst(121915)
updateCurrDst(121921)
updateCurrDst(122103)
updateCurrDst(122149)
updateCurrDst(122282)
updateCurrDst(122313)
Heartbeat CPU 0 instructions: 71000002 cycles: 28969794 heartbeat IPC: 0.32117 cumulative IPC: 0.321462 (Simulation time: 0 hr 3 min 32 sec) 
updateCurrDst(122577)
updateCurrDst(122583)
updateCurrDst(122763)
updateCurrDst(122934)
updateCurrDst(122981)
updateCurrDst(123060)
updateCurrDst(123097)
updateCurrDst(123145)
updateCurrDst(123164)
updateCurrDst(123309)
updateCurrDst(123338)
updateCurrDst(123507)
updateCurrDst(123530)
updateCurrDst(123550)
updateCurrDst(123591)
updateCurrDst(123633)
updateCurrDst(123909)
updateCurrDst(123917)
updateCurrDst(124006)
updateCurrDst(124018)
updateCurrDst(124227)
updateCurrDst(124232)
updateCurrDst(124238)
updateCurrDst(124260)
updateCurrDst(124477)
Heartbeat CPU 0 instructions: 72000000 cycles: 32078779 heartbeat IPC: 0.321648 cumulative IPC: 0.321524 (Simulation time: 0 hr 3 min 35 sec) 
updateCurrDst(124597)
updateCurrDst(124616)
updateCurrDst(124628)
updateCurrDst(124714)
updateCurrDst(124778)
updateCurrDst(124800)
updateCurrDst(125096)
updateCurrDst(125176)
updateCurrDst(125199)
updateCurrDst(125296)
updateCurrDst(125418)
updateCurrDst(125441)
updateCurrDst(125473)
updateCurrDst(125480)
updateCurrDst(125570)
updateCurrDst(125640)
updateCurrDst(125811)
updateCurrDst(125916)
updateCurrDst(126262)
updateCurrDst(126302)
updateCurrDst(126418)
updateCurrDst(126499)
updateCurrDst(126579)
Heartbeat CPU 0 instructions: 73000000 cycles: 35184389 heartbeat IPC: 0.321998 cumulative IPC: 0.321642 (Simulation time: 0 hr 3 min 40 sec) 
updateCurrDst(126607)
updateCurrDst(126757)
updateCurrDst(126831)
updateCurrDst(126985)
updateCurrDst(126999)
updateCurrDst(127106)
updateCurrDst(127292)
updateCurrDst(127316)
updateCurrDst(127406)
updateCurrDst(127435)
updateCurrDst(127509)
updateCurrDst(127692)
updateCurrDst(127718)
updateCurrDst(127720)
updateCurrDst(127880)
updateCurrDst(127979)
updateCurrDst(128128)
updateCurrDst(128267)
updateCurrDst(128297)
updateCurrDst(128356)
updateCurrDst(128412)
updateCurrDst(128413)
updateCurrDst(128480)
updateCurrDst(128493)
Heartbeat CPU 0 instructions: 74000003 cycles: 38296250 heartbeat IPC: 0.321352 cumulative IPC: 0.321584 (Simulation time: 0 hr 3 min 43 sec) 
updateCurrDst(128689)
updateCurrDst(128936)
updateCurrDst(129493)
updateCurrDst(129735)
updateCurrDst(129745)
updateCurrDst(129848)
updateCurrDst(129980)
updateCurrDst(130062)
updateCurrDst(130067)
updateCurrDst(130169)
updateCurrDst(130434)
updateCurrDst(130536)
updateCurrDst(130573)
updateCurrDst(130661)
updateCurrDst(130673)
updateCurrDst(130680)
updateCurrDst(130715)
Heartbeat CPU 0 instructions: 75000001 cycles: 41411394 heartbeat IPC: 0.321012 cumulative IPC: 0.321489 (Simulation time: 0 hr 3 min 46 sec) 
updateCurrDst(130780)
updateCurrDst(130883)
updateCurrDst(131123)
updateCurrDst(131155)
updateCurrDst(131203)
updateCurrDst(131251)
updateCurrDst(131269)
updateCurrDst(131406)
updateCurrDst(131425)
updateCurrDst(131622)
updateCurrDst(131639)
updateCurrDst(131647)
updateCurrDst(131746)
updateCurrDst(131864)
updateCurrDst(131933)
updateCurrDst(131978)
updateCurrDst(132034)
updateCurrDst(132074)
updateCurrDst(132114)
updateCurrDst(132178)
updateCurrDst(132280)
updateCurrDst(132382)
updateCurrDst(132478)
updateCurrDst(132557)
updateCurrDst(132728)
updateCurrDst(132819)
Heartbeat CPU 0 instructions: 76000000 cycles: 44519189 heartbeat IPC: 0.321771 cumulative IPC: 0.321529 (Simulation time: 0 hr 3 min 50 sec) 
updateCurrDst(132884)
updateCurrDst(132908)
updateCurrDst(133064)
updateCurrDst(133184)
updateCurrDst(133343)
updateCurrDst(133453)
updateCurrDst(133459)
updateCurrDst(133592)
updateCurrDst(133713)
updateCurrDst(133737)
updateCurrDst(134253)
updateCurrDst(134509)
updateCurrDst(134586)
updateCurrDst(134614)
updateCurrDst(134644)
updateCurrDst(134700)
updateCurrDst(134728)
updateCurrDst(134793)
updateCurrDst(134846)
Heartbeat CPU 0 instructions: 77000000 cycles: 47634343 heartbeat IPC: 0.321011 cumulative IPC: 0.321464 (Simulation time: 0 hr 3 min 53 sec) 
updateCurrDst(135053)
updateCurrDst(135232)
updateCurrDst(135287)
updateCurrDst(135665)
updateCurrDst(135729)
updateCurrDst(135777)
updateCurrDst(135791)
updateCurrDst(135830)
updateCurrDst(136168)
updateCurrDst(136200)
updateCurrDst(136225)
updateCurrDst(136267)
updateCurrDst(136412)
updateCurrDst(136429)
updateCurrDst(136529)
updateCurrDst(136781)
updateCurrDst(136803)
updateCurrDst(136958)
Heartbeat CPU 0 instructions: 78000002 cycles: 50747366 heartbeat IPC: 0.321232 cumulative IPC: 0.321438 (Simulation time: 0 hr 3 min 57 sec) 
updateCurrDst(137111)
updateCurrDst(137249)
updateCurrDst(137550)
updateCurrDst(137626)
updateCurrDst(137742)
updateCurrDst(137764)
updateCurrDst(137780)
updateCurrDst(138132)
updateCurrDst(138144)
updateCurrDst(138358)
updateCurrDst(138433)
updateCurrDst(138815)
updateCurrDst(138966)
updateCurrDst(139082)
Heartbeat CPU 0 instructions: 79000003 cycles: 53858299 heartbeat IPC: 0.321447 cumulative IPC: 0.321439 (Simulation time: 0 hr 4 min 0 sec) 
updateCurrDst(139228)
updateCurrDst(139503)
updateCurrDst(139617)
updateCurrDst(139647)
updateCurrDst(139713)
updateCurrDst(139771)
updateCurrDst(139784)
updateCurrDst(139888)
updateCurrDst(140056)
updateCurrDst(140059)
updateCurrDst(140118)
updateCurrDst(140173)
updateCurrDst(140330)
updateCurrDst(140623)
updateCurrDst(140713)
updateCurrDst(140885)
updateCurrDst(141051)
updateCurrDst(141094)
Heartbeat CPU 0 instructions: 80000003 cycles: 56968739 heartbeat IPC: 0.321498 cumulative IPC: 0.321445 (Simulation time: 0 hr 4 min 4 sec) 
updateCurrDst(141256)
updateCurrDst(141324)
updateCurrDst(141422)
updateCurrDst(141521)
updateCurrDst(141641)
updateCurrDst(141740)
updateCurrDst(141855)
updateCurrDst(141860)
updateCurrDst(141948)
updateCurrDst(141975)
updateCurrDst(142019)
updateCurrDst(142175)
updateCurrDst(142188)
updateCurrDst(142462)
updateCurrDst(142552)
updateCurrDst(142567)
updateCurrDst(142767)
Heartbeat CPU 0 instructions: 81000000 cycles: 60087402 heartbeat IPC: 0.320649 cumulative IPC: 0.321378 (Simulation time: 0 hr 4 min 7 sec) 
updateCurrDst(143259)
updateCurrDst(143285)
updateCurrDst(143323)
updateCurrDst(143360)
updateCurrDst(143470)
updateCurrDst(143552)
updateCurrDst(144085)
updateCurrDst(144127)
updateCurrDst(144224)
updateCurrDst(144241)
updateCurrDst(144291)
updateCurrDst(144542)
updateCurrDst(144636)
updateCurrDst(144735)
updateCurrDst(144778)
updateCurrDst(144886)
updateCurrDst(145120)
updateCurrDst(145140)
Heartbeat CPU 0 instructions: 82000002 cycles: 63199717 heartbeat IPC: 0.321305 cumulative IPC: 0.321373 (Simulation time: 0 hr 4 min 10 sec) 
updateCurrDst(145387)
updateCurrDst(145392)
updateCurrDst(145606)
updateCurrDst(145665)
updateCurrDst(146138)
updateCurrDst(146406)
updateCurrDst(146431)
updateCurrDst(146584)
updateCurrDst(146614)
updateCurrDst(146660)
updateCurrDst(146925)
updateCurrDst(146932)
updateCurrDst(146943)
updateCurrDst(147022)
updateCurrDst(147263)
updateCurrDst(147310)
Heartbeat CPU 0 instructions: 83000001 cycles: 66307148 heartbeat IPC: 0.321809 cumulative IPC: 0.321404 (Simulation time: 0 hr 4 min 14 sec) 
updateCurrDst(147403)
updateCurrDst(148238)
updateCurrDst(148248)
updateCurrDst(148327)
updateCurrDst(148376)
updateCurrDst(148503)
updateCurrDst(148541)
updateCurrDst(148666)
updateCurrDst(148670)
updateCurrDst(148828)
updateCurrDst(148942)
updateCurrDst(148961)
updateCurrDst(149081)
updateCurrDst(149348)
updateCurrDst(149386)
Heartbeat CPU 0 instructions: 84000002 cycles: 69417076 heartbeat IPC: 0.321551 cumulative IPC: 0.321414 (Simulation time: 0 hr 4 min 17 sec) 
updateCurrDst(149498)
updateCurrDst(149619)
updateCurrDst(149731)
updateCurrDst(149931)
updateCurrDst(150305)
updateCurrDst(150311)
updateCurrDst(150365)
updateCurrDst(150630)
updateCurrDst(150692)
updateCurrDst(150825)
updateCurrDst(150826)
updateCurrDst(150839)
updateCurrDst(150897)
updateCurrDst(150981)
updateCurrDst(151163)
updateCurrDst(151171)
updateCurrDst(151186)
updateCurrDst(151337)
updateCurrDst(151365)
updateCurrDst(151504)
Heartbeat CPU 0 instructions: 85000002 cycles: 72527728 heartbeat IPC: 0.321476 cumulative IPC: 0.321417 (Simulation time: 0 hr 4 min 21 sec) 
updateCurrDst(151758)
updateCurrDst(151874)
updateCurrDst(151950)
updateCurrDst(152014)
updateCurrDst(152257)
updateCurrDst(152305)
updateCurrDst(152374)
updateCurrDst(152754)
updateCurrDst(152805)
updateCurrDst(153009)
updateCurrDst(153182)
updateCurrDst(153194)
updateCurrDst(153274)
updateCurrDst(153527)
updateCurrDst(153555)
updateCurrDst(153608)
Heartbeat CPU 0 instructions: 86000002 cycles: 75639969 heartbeat IPC: 0.321312 cumulative IPC: 0.321411 (Simulation time: 0 hr 4 min 24 sec) 
updateCurrDst(153623)
updateCurrDst(153629)
updateCurrDst(153966)
updateCurrDst(154013)
updateCurrDst(154494)
updateCurrDst(154827)
updateCurrDst(154906)
updateCurrDst(154915)
updateCurrDst(155018)
updateCurrDst(155149)
updateCurrDst(155269)
updateCurrDst(155297)
updateCurrDst(155487)
updateCurrDst(155550)
Heartbeat CPU 0 instructions: 87000002 cycles: 78746125 heartbeat IPC: 0.321941 cumulative IPC: 0.321441 (Simulation time: 0 hr 4 min 28 sec) 
updateCurrDst(155842)
updateCurrDst(155875)
updateCurrDst(155927)
updateCurrDst(155996)
updateCurrDst(156191)
updateCurrDst(156240)
updateCurrDst(156288)
updateCurrDst(156338)
updateCurrDst(156528)
updateCurrDst(157050)
updateCurrDst(157082)
updateCurrDst(157094)
updateCurrDst(157163)
updateCurrDst(157169)
updateCurrDst(157304)
updateCurrDst(157322)
updateCurrDst(157392)
updateCurrDst(157402)
updateCurrDst(157557)
Heartbeat CPU 0 instructions: 88000000 cycles: 81859131 heartbeat IPC: 0.321232 cumulative IPC: 0.32143 (Simulation time: 0 hr 4 min 31 sec) 
updateCurrDst(157802)
updateCurrDst(157997)
updateCurrDst(158491)
updateCurrDst(158908)
updateCurrDst(159677)
updateCurrDst(159720)
Heartbeat CPU 0 instructions: 89000002 cycles: 84979936 heartbeat IPC: 0.320431 cumulative IPC: 0.32138 (Simulation time: 0 hr 4 min 35 sec) 
updateCurrDst(159885)
updateCurrDst(159938)
updateCurrDst(160008)
updateCurrDst(160165)
updateCurrDst(160294)
updateCurrDst(160485)
updateCurrDst(160623)
updateCurrDst(160825)
updateCurrDst(160849)
updateCurrDst(160924)
updateCurrDst(161073)
updateCurrDst(161104)
updateCurrDst(161152)
updateCurrDst(161154)
updateCurrDst(161282)
updateCurrDst(161551)
updateCurrDst(161608)
updateCurrDst(161624)
updateCurrDst(161832)
updateCurrDst(161905)
Heartbeat CPU 0 instructions: 90000000 cycles: 88089290 heartbeat IPC: 0.32161 cumulative IPC: 0.321391 (Simulation time: 0 hr 4 min 38 sec) 
updateCurrDst(162115)
updateCurrDst(162188)
updateCurrDst(162232)
updateCurrDst(162247)
updateCurrDst(162364)
updateCurrDst(162385)
updateCurrDst(162546)
updateCurrDst(162572)
updateCurrDst(162624)
updateCurrDst(162675)
updateCurrDst(162718)
updateCurrDst(162821)
updateCurrDst(163048)
updateCurrDst(163082)
updateCurrDst(163218)
updateCurrDst(163247)
updateCurrDst(163303)
updateCurrDst(163439)
updateCurrDst(163440)
updateCurrDst(163600)
updateCurrDst(163629)
updateCurrDst(163638)
updateCurrDst(163649)
updateCurrDst(163843)
updateCurrDst(163890)
updateCurrDst(163929)
updateCurrDst(163932)
updateCurrDst(163974)
updateCurrDst(164005)
Heartbeat CPU 0 instructions: 91000000 cycles: 91197122 heartbeat IPC: 0.321768 cumulative IPC: 0.321408 (Simulation time: 0 hr 4 min 41 sec) 
updateCurrDst(164310)
updateCurrDst(164322)
updateCurrDst(164442)
updateCurrDst(164555)
updateCurrDst(164743)
updateCurrDst(164766)
updateCurrDst(164972)
updateCurrDst(165113)
updateCurrDst(165324)
updateCurrDst(165353)
updateCurrDst(165382)
updateCurrDst(165498)
updateCurrDst(165590)
updateCurrDst(165753)
updateCurrDst(165963)
updateCurrDst(165979)
updateCurrDst(166070)
Heartbeat CPU 0 instructions: 92000003 cycles: 94314132 heartbeat IPC: 0.320821 cumulative IPC: 0.321382 (Simulation time: 0 hr 4 min 45 sec) 
updateCurrDst(166134)
updateCurrDst(166220)
updateCurrDst(166242)
updateCurrDst(166273)
updateCurrDst(166384)
updateCurrDst(166485)
updateCurrDst(166489)
updateCurrDst(166770)
updateCurrDst(166878)
updateCurrDst(166889)
updateCurrDst(166975)
updateCurrDst(166978)
updateCurrDst(167089)
updateCurrDst(167277)
updateCurrDst(167404)
updateCurrDst(167574)
updateCurrDst(167637)
updateCurrDst(167777)
updateCurrDst(167833)
updateCurrDst(167860)
updateCurrDst(167965)
updateCurrDst(167974)
updateCurrDst(168152)
Heartbeat CPU 0 instructions: 93000000 cycles: 97422700 heartbeat IPC: 0.321691 cumulative IPC: 0.321395 (Simulation time: 0 hr 4 min 48 sec) 
updateCurrDst(168211)
updateCurrDst(168275)
updateCurrDst(168392)
updateCurrDst(168402)
updateCurrDst(168619)
updateCurrDst(168652)
updateCurrDst(168671)
updateCurrDst(168689)
updateCurrDst(168721)
updateCurrDst(168864)
updateCurrDst(168917)
updateCurrDst(169127)
updateCurrDst(169171)
updateCurrDst(169174)
updateCurrDst(169239)
updateCurrDst(169298)
updateCurrDst(169389)
updateCurrDst(169438)
updateCurrDst(169551)
updateCurrDst(169580)
updateCurrDst(169864)
updateCurrDst(170019)
updateCurrDst(170130)
updateCurrDst(170227)
Heartbeat CPU 0 instructions: 94000000 cycles: 100531394 heartbeat IPC: 0.321678 cumulative IPC: 0.321406 (Simulation time: 0 hr 4 min 52 sec) 
updateCurrDst(170285)
updateCurrDst(170470)
updateCurrDst(170615)
updateCurrDst(170851)
updateCurrDst(171098)
updateCurrDst(171121)
updateCurrDst(171181)
updateCurrDst(171214)
updateCurrDst(171327)
updateCurrDst(171665)
updateCurrDst(171666)
updateCurrDst(171721)
updateCurrDst(171953)
updateCurrDst(172034)
updateCurrDst(172209)
Heartbeat CPU 0 instructions: 95000003 cycles: 103650850 heartbeat IPC: 0.32057 cumulative IPC: 0.321374 (Simulation time: 0 hr 4 min 55 sec) 
updateCurrDst(172356)
updateCurrDst(172622)
updateCurrDst(172681)
updateCurrDst(172711)
updateCurrDst(172796)
updateCurrDst(172837)
updateCurrDst(172993)
updateCurrDst(173063)
updateCurrDst(173140)
updateCurrDst(173362)
updateCurrDst(173395)
updateCurrDst(173466)
updateCurrDst(173600)
updateCurrDst(174389)
Heartbeat CPU 0 instructions: 96000000 cycles: 106755286 heartbeat IPC: 0.322119 cumulative IPC: 0.321402 (Simulation time: 0 hr 4 min 59 sec) 
updateCurrDst(174542)
updateCurrDst(174554)
updateCurrDst(174607)
updateCurrDst(174608)
updateCurrDst(174667)
updateCurrDst(174756)
updateCurrDst(174866)
updateCurrDst(174910)
updateCurrDst(175019)
updateCurrDst(175399)
updateCurrDst(175421)
updateCurrDst(175422)
updateCurrDst(175457)
updateCurrDst(175470)
updateCurrDst(175557)
updateCurrDst(175572)
updateCurrDst(175650)
updateCurrDst(175932)
updateCurrDst(175983)
updateCurrDst(176126)
updateCurrDst(176400)
updateCurrDst(176440)
Heartbeat CPU 0 instructions: 97000000 cycles: 109859478 heartbeat IPC: 0.322145 cumulative IPC: 0.321428 (Simulation time: 0 hr 5 min 2 sec) 
updateCurrDst(176591)
updateCurrDst(176601)
updateCurrDst(176643)
updateCurrDst(176721)
updateCurrDst(176759)
updateCurrDst(176878)
updateCurrDst(176924)
updateCurrDst(177000)
updateCurrDst(177052)
updateCurrDst(177098)
updateCurrDst(177136)
updateCurrDst(177146)
updateCurrDst(177205)
updateCurrDst(177242)
updateCurrDst(177267)
updateCurrDst(177296)
updateCurrDst(177355)
updateCurrDst(177657)
updateCurrDst(177741)
updateCurrDst(177789)
updateCurrDst(177842)
updateCurrDst(178293)
updateCurrDst(178330)
updateCurrDst(178418)
updateCurrDst(178517)
Heartbeat CPU 0 instructions: 98000000 cycles: 112972381 heartbeat IPC: 0.321244 cumulative IPC: 0.321422 (Simulation time: 0 hr 5 min 6 sec) 
updateCurrDst(178614)
updateCurrDst(178718)
updateCurrDst(178728)
updateCurrDst(178866)
updateCurrDst(178885)
updateCurrDst(179053)
updateCurrDst(179415)
updateCurrDst(179421)
updateCurrDst(179494)
updateCurrDst(179523)
updateCurrDst(179547)
updateCurrDst(179720)
updateCurrDst(179742)
updateCurrDst(179823)
updateCurrDst(179884)
updateCurrDst(179938)
updateCurrDst(179997)
updateCurrDst(180417)
Heartbeat CPU 0 instructions: 99000000 cycles: 116083825 heartbeat IPC: 0.321394 cumulative IPC: 0.321421 (Simulation time: 0 hr 5 min 9 sec) 
updateCurrDst(180851)
updateCurrDst(180989)
updateCurrDst(181029)
updateCurrDst(181078)
updateCurrDst(181196)
updateCurrDst(181246)
updateCurrDst(181422)
updateCurrDst(181445)
updateCurrDst(181480)
updateCurrDst(181951)
updateCurrDst(182188)
updateCurrDst(182202)
updateCurrDst(182260)
updateCurrDst(182268)
updateCurrDst(182407)
updateCurrDst(182419)
updateCurrDst(182425)
updateCurrDst(182557)
updateCurrDst(182637)
updateCurrDst(182658)
updateCurrDst(182668)
Heartbeat CPU 0 instructions: 100000000 cycles: 119201142 heartbeat IPC: 0.320789 cumulative IPC: 0.3214 (Simulation time: 0 hr 5 min 13 sec) 
updateCurrDst(182782)
updateCurrDst(182810)
updateCurrDst(182839)
updateCurrDst(182920)
updateCurrDst(183036)
updateCurrDst(183048)
updateCurrDst(183278)
updateCurrDst(183423)
updateCurrDst(183440)
updateCurrDst(183697)
updateCurrDst(183809)
updateCurrDst(184033)
updateCurrDst(184169)
updateCurrDst(184219)
updateCurrDst(184252)
updateCurrDst(184261)
updateCurrDst(184563)
updateCurrDst(184679)
updateCurrDst(184779)
updateCurrDst(184821)
Heartbeat CPU 0 instructions: 101000003 cycles: 122306630 heartbeat IPC: 0.322012 cumulative IPC: 0.321419 (Simulation time: 0 hr 5 min 16 sec) 
updateCurrDst(184953)
updateCurrDst(185023)
updateCurrDst(185067)
updateCurrDst(185122)
updateCurrDst(185361)
updateCurrDst(185434)
updateCurrDst(185441)
updateCurrDst(185468)
updateCurrDst(185533)
updateCurrDst(185572)
updateCurrDst(185680)
updateCurrDst(185718)
updateCurrDst(185796)
updateCurrDst(185913)
updateCurrDst(185916)
updateCurrDst(186250)
updateCurrDst(186299)
updateCurrDst(186536)
updateCurrDst(186565)
updateCurrDst(186638)
updateCurrDst(186697)
updateCurrDst(186727)
updateCurrDst(186812)
Heartbeat CPU 0 instructions: 102000003 cycles: 125421249 heartbeat IPC: 0.321067 cumulative IPC: 0.321409 (Simulation time: 0 hr 5 min 20 sec) 
updateCurrDst(186985)
updateCurrDst(187207)
updateCurrDst(187314)
updateCurrDst(187469)
updateCurrDst(187516)
updateCurrDst(187531)
updateCurrDst(187612)
updateCurrDst(187704)
updateCurrDst(187785)
updateCurrDst(187891)
updateCurrDst(187902)
updateCurrDst(188032)
updateCurrDst(188279)
updateCurrDst(188310)
updateCurrDst(188370)
updateCurrDst(188440)
updateCurrDst(188462)
updateCurrDst(188479)
updateCurrDst(188724)
updateCurrDst(188828)
Heartbeat CPU 0 instructions: 103000003 cycles: 128532569 heartbeat IPC: 0.321407 cumulative IPC: 0.321409 (Simulation time: 0 hr 5 min 24 sec) 
updateCurrDst(189042)
updateCurrDst(189088)
updateCurrDst(189217)
updateCurrDst(189596)
updateCurrDst(189851)
updateCurrDst(189869)
updateCurrDst(190199)
updateCurrDst(190347)
updateCurrDst(190373)
updateCurrDst(190765)
updateCurrDst(190780)
updateCurrDst(190964)
Heartbeat CPU 0 instructions: 104000001 cycles: 131637779 heartbeat IPC: 0.322039 cumulative IPC: 0.321427 (Simulation time: 0 hr 5 min 27 sec) 
updateCurrDst(191118)
updateCurrDst(191137)
updateCurrDst(191170)
updateCurrDst(191182)
updateCurrDst(191335)
updateCurrDst(191388)
updateCurrDst(191425)
updateCurrDst(191519)
updateCurrDst(191605)
updateCurrDst(191696)
updateCurrDst(191763)
updateCurrDst(191776)
updateCurrDst(191782)
updateCurrDst(191790)
updateCurrDst(191914)
updateCurrDst(191994)
updateCurrDst(192002)
updateCurrDst(192036)
updateCurrDst(192102)
updateCurrDst(192281)
updateCurrDst(192297)
updateCurrDst(192500)
updateCurrDst(192518)
updateCurrDst(192606)
updateCurrDst(193075)
updateCurrDst(193096)
Heartbeat CPU 0 instructions: 105000002 cycles: 134745170 heartbeat IPC: 0.321814 cumulative IPC: 0.321437 (Simulation time: 0 hr 5 min 30 sec) 
updateCurrDst(193208)
updateCurrDst(193528)
updateCurrDst(193561)
updateCurrDst(193650)
updateCurrDst(193672)
updateCurrDst(193706)
updateCurrDst(193731)
updateCurrDst(193744)
updateCurrDst(193928)
updateCurrDst(194113)
updateCurrDst(194256)
updateCurrDst(194309)
updateCurrDst(194520)
updateCurrDst(194729)
updateCurrDst(195051)
updateCurrDst(195155)
Heartbeat CPU 0 instructions: 106000001 cycles: 137864031 heartbeat IPC: 0.32063 cumulative IPC: 0.321415 (Simulation time: 0 hr 5 min 34 sec) 
updateCurrDst(195278)
updateCurrDst(195318)
updateCurrDst(195395)
updateCurrDst(195500)
updateCurrDst(195529)
updateCurrDst(195617)
updateCurrDst(195660)
updateCurrDst(195731)
updateCurrDst(195770)
updateCurrDst(195868)
updateCurrDst(195973)
updateCurrDst(196160)
updateCurrDst(196199)
updateCurrDst(196226)
updateCurrDst(196227)
updateCurrDst(196249)
updateCurrDst(196250)
updateCurrDst(196441)
updateCurrDst(196476)
updateCurrDst(196577)
updateCurrDst(196619)
updateCurrDst(196737)
updateCurrDst(196768)
updateCurrDst(196842)
updateCurrDst(196963)
updateCurrDst(196964)
updateCurrDst(196971)
updateCurrDst(196996)
Heartbeat CPU 0 instructions: 107000001 cycles: 140971290 heartbeat IPC: 0.321827 cumulative IPC: 0.321426 (Simulation time: 0 hr 5 min 37 sec) 
updateCurrDst(197707)
updateCurrDst(197743)
updateCurrDst(197754)
updateCurrDst(197913)
updateCurrDst(197935)
updateCurrDst(197983)
updateCurrDst(198042)
updateCurrDst(198091)
updateCurrDst(198224)
updateCurrDst(198237)
updateCurrDst(198431)
updateCurrDst(198434)
updateCurrDst(198472)
updateCurrDst(198527)
updateCurrDst(198664)
updateCurrDst(198730)
updateCurrDst(198853)
updateCurrDst(198876)
updateCurrDst(198939)
updateCurrDst(199095)
updateCurrDst(199366)
Heartbeat CPU 0 instructions: 108000001 cycles: 144083819 heartbeat IPC: 0.321282 cumulative IPC: 0.321423 (Simulation time: 0 hr 5 min 41 sec) 
updateCurrDst(199539)
updateCurrDst(199631)
updateCurrDst(199721)
updateCurrDst(199745)
updateCurrDst(199758)
updateCurrDst(199789)
updateCurrDst(199821)
updateCurrDst(199851)
updateCurrDst(199856)
updateCurrDst(199859)
updateCurrDst(200080)
updateCurrDst(200144)
updateCurrDst(200239)
updateCurrDst(200300)
updateCurrDst(200449)
updateCurrDst(200452)
updateCurrDst(200558)
updateCurrDst(200584)
updateCurrDst(200587)
updateCurrDst(200644)
updateCurrDst(200725)
updateCurrDst(200830)
updateCurrDst(200954)
updateCurrDst(201255)
updateCurrDst(201258)
updateCurrDst(201262)
updateCurrDst(201352)
Heartbeat CPU 0 instructions: 109000000 cycles: 147190194 heartbeat IPC: 0.321918 cumulative IPC: 0.321435 (Simulation time: 0 hr 5 min 44 sec) 
updateCurrDst(201531)
updateCurrDst(201700)
updateCurrDst(201736)
updateCurrDst(201750)
updateCurrDst(201972)
updateCurrDst(202031)
updateCurrDst(202088)
updateCurrDst(202190)
updateCurrDst(202241)
updateCurrDst(202371)
updateCurrDst(202551)
updateCurrDst(202680)
updateCurrDst(202859)
updateCurrDst(202996)
updateCurrDst(203028)
updateCurrDst(203308)
updateCurrDst(203385)
updateCurrDst(203396)
updateCurrDst(203442)
updateCurrDst(203514)
Heartbeat CPU 0 instructions: 110000000 cycles: 150297324 heartbeat IPC: 0.32184 cumulative IPC: 0.321445 (Simulation time: 0 hr 5 min 48 sec) 
updateCurrDst(203602)
updateCurrDst(203948)
updateCurrDst(203969)
updateCurrDst(204008)
updateCurrDst(204116)
updateCurrDst(204190)
updateCurrDst(204249)
updateCurrDst(204379)
updateCurrDst(204490)
updateCurrDst(204514)
updateCurrDst(204639)
updateCurrDst(204755)
updateCurrDst(204883)
updateCurrDst(204932)
updateCurrDst(204957)
updateCurrDst(205221)
updateCurrDst(205298)
updateCurrDst(205331)
updateCurrDst(205361)
updateCurrDst(205444)
updateCurrDst(205528)
updateCurrDst(205562)
updateCurrDst(205594)
Heartbeat CPU 0 instructions: 111000002 cycles: 153405962 heartbeat IPC: 0.321685 cumulative IPC: 0.321451 (Simulation time: 0 hr 5 min 51 sec) 
updateCurrDst(205902)
updateCurrDst(206012)
updateCurrDst(206532)
updateCurrDst(206687)
updateCurrDst(207037)
updateCurrDst(207349)
updateCurrDst(207405)
updateCurrDst(207706)
updateCurrDst(207717)
Heartbeat CPU 0 instructions: 112000000 cycles: 156512156 heartbeat IPC: 0.321937 cumulative IPC: 0.321462 (Simulation time: 0 hr 5 min 54 sec) 
updateCurrDst(207814)
updateCurrDst(208198)
updateCurrDst(208235)
updateCurrDst(208242)
updateCurrDst(208328)
updateCurrDst(208357)
updateCurrDst(208384)
updateCurrDst(208428)
updateCurrDst(208458)
updateCurrDst(208861)
updateCurrDst(209179)
updateCurrDst(209225)
updateCurrDst(209257)
updateCurrDst(209264)
updateCurrDst(209389)
updateCurrDst(209543)
updateCurrDst(209587)
updateCurrDst(209622)
updateCurrDst(209669)
updateCurrDst(209707)
updateCurrDst(209793)
updateCurrDst(209802)
updateCurrDst(209814)
Heartbeat CPU 0 instructions: 113000001 cycles: 159629373 heartbeat IPC: 0.320799 cumulative IPC: 0.321447 (Simulation time: 0 hr 5 min 58 sec) 
updateCurrDst(209857)
updateCurrDst(210167)
updateCurrDst(210174)
updateCurrDst(210300)
updateCurrDst(210548)
updateCurrDst(210685)
updateCurrDst(210697)
updateCurrDst(210857)
updateCurrDst(211017)
updateCurrDst(211056)
updateCurrDst(211070)
updateCurrDst(211402)
updateCurrDst(211449)
updateCurrDst(211460)
updateCurrDst(211545)
updateCurrDst(211551)
updateCurrDst(211757)
updateCurrDst(211791)
updateCurrDst(211821)
updateCurrDst(211925)
updateCurrDst(211946)
Heartbeat CPU 0 instructions: 114000000 cycles: 162738391 heartbeat IPC: 0.321645 cumulative IPC: 0.321451 (Simulation time: 0 hr 6 min 1 sec) 
updateCurrDst(212377)
updateCurrDst(212573)
updateCurrDst(212649)
updateCurrDst(212879)
updateCurrDst(212925)
updateCurrDst(212961)
updateCurrDst(212967)
updateCurrDst(213062)
updateCurrDst(213072)
updateCurrDst(213110)
updateCurrDst(213141)
updateCurrDst(213162)
updateCurrDst(213164)
updateCurrDst(213695)
updateCurrDst(213796)
updateCurrDst(213902)
Heartbeat CPU 0 instructions: 115000002 cycles: 165846648 heartbeat IPC: 0.321724 cumulative IPC: 0.321457 (Simulation time: 0 hr 6 min 5 sec) 
updateCurrDst(214047)
updateCurrDst(214098)
updateCurrDst(214109)
updateCurrDst(214111)
updateCurrDst(214152)
updateCurrDst(214262)
updateCurrDst(214483)
updateCurrDst(214486)
updateCurrDst(214758)
updateCurrDst(215011)
updateCurrDst(215021)
updateCurrDst(215206)
updateCurrDst(215279)
updateCurrDst(215375)
updateCurrDst(215382)
updateCurrDst(215851)
updateCurrDst(216070)
Heartbeat CPU 0 instructions: 116000002 cycles: 168950275 heartbeat IPC: 0.322204 cumulative IPC: 0.321473 (Simulation time: 0 hr 6 min 8 sec) 
updateCurrDst(216136)
updateCurrDst(216265)
updateCurrDst(216463)
updateCurrDst(216516)
updateCurrDst(216525)
updateCurrDst(216565)
updateCurrDst(216602)
updateCurrDst(216688)
updateCurrDst(216753)
updateCurrDst(216887)
updateCurrDst(216928)
updateCurrDst(217105)
updateCurrDst(217141)
updateCurrDst(217344)
updateCurrDst(217353)
updateCurrDst(217556)
updateCurrDst(218162)
Heartbeat CPU 0 instructions: 117000002 cycles: 172062868 heartbeat IPC: 0.321276 cumulative IPC: 0.321469 (Simulation time: 0 hr 6 min 12 sec) 
updateCurrDst(218284)
updateCurrDst(218399)
updateCurrDst(218569)
updateCurrDst(218757)
updateCurrDst(218776)
updateCurrDst(218875)
updateCurrDst(218893)
updateCurrDst(218908)
updateCurrDst(219079)
updateCurrDst(219117)
updateCurrDst(219201)
updateCurrDst(219340)
updateCurrDst(219389)
updateCurrDst(219418)
updateCurrDst(219426)
updateCurrDst(219569)
updateCurrDst(219597)
updateCurrDst(219798)
updateCurrDst(219823)
updateCurrDst(219835)
updateCurrDst(219838)
updateCurrDst(219931)
updateCurrDst(220105)
updateCurrDst(220164)
updateCurrDst(220254)
Heartbeat CPU 0 instructions: 118000001 cycles: 175177136 heartbeat IPC: 0.321102 cumulative IPC: 0.321461 (Simulation time: 0 hr 6 min 15 sec) 
updateCurrDst(220377)
updateCurrDst(220447)
updateCurrDst(220453)
updateCurrDst(220570)
updateCurrDst(220630)
updateCurrDst(220829)
updateCurrDst(220860)
updateCurrDst(220875)
updateCurrDst(220976)
updateCurrDst(221036)
updateCurrDst(221270)
updateCurrDst(221275)
updateCurrDst(221537)
updateCurrDst(221687)
updateCurrDst(221795)
updateCurrDst(221807)
updateCurrDst(221995)
updateCurrDst(222032)
updateCurrDst(222134)
updateCurrDst(222253)
Heartbeat CPU 0 instructions: 119000000 cycles: 178293776 heartbeat IPC: 0.320858 cumulative IPC: 0.321449 (Simulation time: 0 hr 6 min 18 sec) 
updateCurrDst(222398)
updateCurrDst(222477)
updateCurrDst(222522)
updateCurrDst(222649)
updateCurrDst(222722)
updateCurrDst(222846)
updateCurrDst(222856)
updateCurrDst(223068)
updateCurrDst(223169)
updateCurrDst(223305)
updateCurrDst(223329)
updateCurrDst(223345)
updateCurrDst(223389)
updateCurrDst(223407)
updateCurrDst(223472)
updateCurrDst(223494)
updateCurrDst(223598)
updateCurrDst(223704)
updateCurrDst(223706)
updateCurrDst(223828)
updateCurrDst(223839)
updateCurrDst(223882)
updateCurrDst(223974)
updateCurrDst(223977)
updateCurrDst(224132)
updateCurrDst(224140)
Heartbeat CPU 0 instructions: 120000002 cycles: 181402782 heartbeat IPC: 0.321647 cumulative IPC: 0.321453 (Simulation time: 0 hr 6 min 22 sec) 
updateCurrDst(224706)
updateCurrDst(224833)
updateCurrDst(224978)
updateCurrDst(225035)
updateCurrDst(225181)
updateCurrDst(225442)
updateCurrDst(225651)
updateCurrDst(225654)
updateCurrDst(225778)
updateCurrDst(225867)
updateCurrDst(225881)
updateCurrDst(226030)
updateCurrDst(226080)
updateCurrDst(226133)
updateCurrDst(226145)
updateCurrDst(226187)
updateCurrDst(226267)
updateCurrDst(226273)
updateCurrDst(226337)
Heartbeat CPU 0 instructions: 121000000 cycles: 184513275 heartbeat IPC: 0.321492 cumulative IPC: 0.321454 (Simulation time: 0 hr 6 min 25 sec) 
updateCurrDst(226526)
updateCurrDst(226559)
updateCurrDst(226992)
updateCurrDst(227253)
updateCurrDst(227269)
updateCurrDst(227339)
updateCurrDst(227365)
updateCurrDst(227408)
updateCurrDst(227447)
updateCurrDst(227477)
updateCurrDst(227596)
updateCurrDst(227600)
updateCurrDst(227616)
updateCurrDst(227765)
updateCurrDst(227984)
updateCurrDst(228349)
updateCurrDst(228353)
updateCurrDst(228429)
Heartbeat CPU 0 instructions: 122000000 cycles: 187630445 heartbeat IPC: 0.320804 cumulative IPC: 0.321442 (Simulation time: 0 hr 6 min 29 sec) 
updateCurrDst(228835)
updateCurrDst(229115)
updateCurrDst(229271)
updateCurrDst(229321)
updateCurrDst(229329)
updateCurrDst(229550)
updateCurrDst(229642)
updateCurrDst(229942)
updateCurrDst(229953)
updateCurrDst(229979)
updateCurrDst(230041)
updateCurrDst(230090)
updateCurrDst(230162)
updateCurrDst(230223)
updateCurrDst(230227)
updateCurrDst(230243)
updateCurrDst(230246)
updateCurrDst(230254)
updateCurrDst(230285)
updateCurrDst(230291)
updateCurrDst(230427)
updateCurrDst(230567)
updateCurrDst(230612)
Heartbeat CPU 0 instructions: 123000001 cycles: 190740903 heartbeat IPC: 0.321496 cumulative IPC: 0.321443 (Simulation time: 0 hr 6 min 32 sec) 
updateCurrDst(230669)
updateCurrDst(230777)
updateCurrDst(230832)
updateCurrDst(230853)
updateCurrDst(230897)
updateCurrDst(230967)
updateCurrDst(231267)
updateCurrDst(231439)
updateCurrDst(231658)
updateCurrDst(231722)
updateCurrDst(231744)
updateCurrDst(231764)
updateCurrDst(231878)
updateCurrDst(232022)
updateCurrDst(232298)
updateCurrDst(232312)
updateCurrDst(232378)
updateCurrDst(232430)
updateCurrDst(232500)
updateCurrDst(232505)
updateCurrDst(232507)
updateCurrDst(232691)
Heartbeat CPU 0 instructions: 124000000 cycles: 193850285 heartbeat IPC: 0.321607 cumulative IPC: 0.321446 (Simulation time: 0 hr 6 min 36 sec) 
updateCurrDst(232711)
updateCurrDst(232756)
updateCurrDst(232770)
updateCurrDst(232892)
updateCurrDst(233035)
updateCurrDst(233046)
updateCurrDst(233110)
updateCurrDst(233142)
updateCurrDst(233167)
updateCurrDst(233357)
updateCurrDst(233450)
updateCurrDst(233459)
updateCurrDst(233556)
updateCurrDst(233737)
updateCurrDst(233757)
updateCurrDst(233791)
updateCurrDst(233842)
updateCurrDst(233980)
updateCurrDst(234070)
updateCurrDst(234180)
updateCurrDst(234382)
updateCurrDst(234432)
updateCurrDst(234520)
updateCurrDst(234533)
updateCurrDst(234624)
updateCurrDst(234770)
Heartbeat CPU 0 instructions: 125000002 cycles: 196961023 heartbeat IPC: 0.321468 cumulative IPC: 0.321446 (Simulation time: 0 hr 6 min 39 sec) 
updateCurrDst(234877)
updateCurrDst(234908)
updateCurrDst(235010)
updateCurrDst(235045)
updateCurrDst(235149)
updateCurrDst(235315)
updateCurrDst(235318)
updateCurrDst(235321)
updateCurrDst(235385)
updateCurrDst(235448)
updateCurrDst(235550)
updateCurrDst(235566)
updateCurrDst(235604)
updateCurrDst(235702)
updateCurrDst(235931)
updateCurrDst(236157)
updateCurrDst(236225)
updateCurrDst(236284)
updateCurrDst(236293)
updateCurrDst(236517)
updateCurrDst(236560)
updateCurrDst(236567)
Heartbeat CPU 0 instructions: 126000000 cycles: 200067017 heartbeat IPC: 0.321957 cumulative IPC: 0.321455 (Simulation time: 0 hr 6 min 43 sec) 
updateCurrDst(237018)
updateCurrDst(237073)
updateCurrDst(237311)
updateCurrDst(237347)
updateCurrDst(237368)
updateCurrDst(237383)
updateCurrDst(237491)
updateCurrDst(237679)
updateCurrDst(237889)
updateCurrDst(237909)
updateCurrDst(237994)
updateCurrDst(238022)
updateCurrDst(238062)
updateCurrDst(238099)
updateCurrDst(238204)
updateCurrDst(238294)
updateCurrDst(238341)
updateCurrDst(238432)
updateCurrDst(238484)
updateCurrDst(238572)
updateCurrDst(238592)
updateCurrDst(238639)
updateCurrDst(238742)
updateCurrDst(238749)
updateCurrDst(238752)
updateCurrDst(238782)
updateCurrDst(238920)
Heartbeat CPU 0 instructions: 127000001 cycles: 203183536 heartbeat IPC: 0.320871 cumulative IPC: 0.321445 (Simulation time: 0 hr 6 min 46 sec) 
updateCurrDst(239082)
updateCurrDst(239134)
updateCurrDst(239450)
updateCurrDst(239643)
updateCurrDst(239669)
updateCurrDst(239793)
updateCurrDst(239934)
updateCurrDst(239982)
updateCurrDst(240017)
updateCurrDst(240023)
updateCurrDst(240024)
updateCurrDst(240045)
updateCurrDst(240142)
updateCurrDst(240201)
updateCurrDst(240231)
updateCurrDst(240376)
updateCurrDst(240593)
updateCurrDst(240777)
updateCurrDst(240791)
updateCurrDst(240862)
updateCurrDst(240887)
updateCurrDst(240985)
Heartbeat CPU 0 instructions: 128000001 cycles: 206294912 heartbeat IPC: 0.321401 cumulative IPC: 0.321444 (Simulation time: 0 hr 6 min 49 sec) 
updateCurrDst(241236)
updateCurrDst(241683)
updateCurrDst(241786)
updateCurrDst(241941)
updateCurrDst(241987)
updateCurrDst(242053)
updateCurrDst(242079)
updateCurrDst(242095)
updateCurrDst(242099)
updateCurrDst(242293)
updateCurrDst(242409)
updateCurrDst(242422)
updateCurrDst(242462)
updateCurrDst(242489)
updateCurrDst(242629)
updateCurrDst(242683)
updateCurrDst(242696)
updateCurrDst(242749)
updateCurrDst(242754)
updateCurrDst(242774)
updateCurrDst(242830)
updateCurrDst(242865)
updateCurrDst(242907)
updateCurrDst(242942)
Heartbeat CPU 0 instructions: 129000002 cycles: 209404854 heartbeat IPC: 0.32155 cumulative IPC: 0.321446 (Simulation time: 0 hr 6 min 53 sec) 
updateCurrDst(243114)
updateCurrDst(243156)
updateCurrDst(243175)
updateCurrDst(243217)
updateCurrDst(243303)
updateCurrDst(243371)
updateCurrDst(243427)
updateCurrDst(243441)
updateCurrDst(243464)
updateCurrDst(243501)
updateCurrDst(243680)
updateCurrDst(243804)
updateCurrDst(243878)
updateCurrDst(243957)
updateCurrDst(243968)
updateCurrDst(243987)
updateCurrDst(244173)
updateCurrDst(244254)
updateCurrDst(244276)
updateCurrDst(244376)
updateCurrDst(244410)
updateCurrDst(244413)
updateCurrDst(244416)
updateCurrDst(244651)
updateCurrDst(244724)
updateCurrDst(244847)
updateCurrDst(245035)
updateCurrDst(245158)
updateCurrDst(245161)
Heartbeat CPU 0 instructions: 130000003 cycles: 212520701 heartbeat IPC: 0.32094 cumulative IPC: 0.321438 (Simulation time: 0 hr 6 min 56 sec) 
updateCurrDst(245385)
updateCurrDst(245466)
updateCurrDst(245479)
updateCurrDst(245496)
updateCurrDst(245525)
updateCurrDst(245638)
updateCurrDst(245682)
updateCurrDst(245798)
updateCurrDst(245871)
updateCurrDst(245879)
updateCurrDst(246134)
updateCurrDst(246182)
updateCurrDst(246187)
updateCurrDst(246283)
updateCurrDst(246338)
updateCurrDst(246478)
updateCurrDst(246502)
updateCurrDst(246534)
updateCurrDst(246557)
updateCurrDst(246801)
updateCurrDst(246919)
updateCurrDst(247037)
updateCurrDst(247206)
updateCurrDst(247249)
Heartbeat CPU 0 instructions: 131000000 cycles: 215635857 heartbeat IPC: 0.32101 cumulative IPC: 0.321431 (Simulation time: 0 hr 7 min 0 sec) 
updateCurrDst(247292)
updateCurrDst(247305)
updateCurrDst(247359)
updateCurrDst(247474)
updateCurrDst(247493)
updateCurrDst(247543)
updateCurrDst(247914)
updateCurrDst(248018)
updateCurrDst(248099)
updateCurrDst(248108)
updateCurrDst(248775)
updateCurrDst(249053)
updateCurrDst(249101)
updateCurrDst(249118)
updateCurrDst(249154)
Heartbeat CPU 0 instructions: 132000000 cycles: 218753996 heartbeat IPC: 0.320704 cumulative IPC: 0.321419 (Simulation time: 0 hr 7 min 3 sec) 
updateCurrDst(249379)
updateCurrDst(249520)
updateCurrDst(249537)
updateCurrDst(249542)
updateCurrDst(249555)
updateCurrDst(249575)
updateCurrDst(249712)
updateCurrDst(249775)
updateCurrDst(250442)
updateCurrDst(250682)
updateCurrDst(250930)
updateCurrDst(250964)
updateCurrDst(250981)
updateCurrDst(251173)
updateCurrDst(251183)
updateCurrDst(251250)
updateCurrDst(251271)
updateCurrDst(251275)
updateCurrDst(251291)
Heartbeat CPU 0 instructions: 133000000 cycles: 221865208 heartbeat IPC: 0.321418 cumulative IPC: 0.321419 (Simulation time: 0 hr 7 min 7 sec) 
updateCurrDst(251411)
updateCurrDst(251516)
updateCurrDst(251568)
updateCurrDst(251747)
updateCurrDst(251852)
updateCurrDst(251875)
updateCurrDst(251909)
updateCurrDst(251919)
updateCurrDst(252119)
updateCurrDst(252126)
updateCurrDst(252221)
updateCurrDst(252386)
updateCurrDst(252400)
updateCurrDst(252422)
updateCurrDst(252476)
updateCurrDst(252501)
updateCurrDst(252641)
updateCurrDst(252940)
updateCurrDst(252974)
updateCurrDst(253141)
updateCurrDst(253183)
updateCurrDst(253270)
updateCurrDst(253283)
updateCurrDst(253347)
Heartbeat CPU 0 instructions: 134000000 cycles: 224970401 heartbeat IPC: 0.322041 cumulative IPC: 0.321429 (Simulation time: 0 hr 7 min 10 sec) 
updateCurrDst(253489)
updateCurrDst(253551)
updateCurrDst(253566)
updateCurrDst(253625)
updateCurrDst(253636)
updateCurrDst(253702)
updateCurrDst(253718)
updateCurrDst(253863)
updateCurrDst(253928)
updateCurrDst(253975)
updateCurrDst(254327)
updateCurrDst(254534)
updateCurrDst(254805)
updateCurrDst(254824)
updateCurrDst(254833)
updateCurrDst(254849)
updateCurrDst(254926)
updateCurrDst(254930)
updateCurrDst(255022)
updateCurrDst(255046)
updateCurrDst(255248)
updateCurrDst(255458)
Heartbeat CPU 0 instructions: 135000000 cycles: 228083578 heartbeat IPC: 0.321215 cumulative IPC: 0.321425 (Simulation time: 0 hr 7 min 14 sec) 
updateCurrDst(255682)
updateCurrDst(255690)
updateCurrDst(255713)
updateCurrDst(255910)
updateCurrDst(255950)
updateCurrDst(256106)
updateCurrDst(256390)
updateCurrDst(256551)
updateCurrDst(256598)
updateCurrDst(256734)
updateCurrDst(256757)
updateCurrDst(256775)
updateCurrDst(256848)
updateCurrDst(257062)
updateCurrDst(257236)
updateCurrDst(257393)
updateCurrDst(257414)
updateCurrDst(257421)
updateCurrDst(257456)
updateCurrDst(257521)
updateCurrDst(257522)
updateCurrDst(257529)
updateCurrDst(257585)
updateCurrDst(257591)
Heartbeat CPU 0 instructions: 136000000 cycles: 231195303 heartbeat IPC: 0.321365 cumulative IPC: 0.321425 (Simulation time: 0 hr 7 min 17 sec) 
updateCurrDst(257698)
updateCurrDst(257756)
updateCurrDst(257839)
updateCurrDst(258238)
updateCurrDst(258388)
updateCurrDst(258513)
updateCurrDst(258665)
updateCurrDst(258734)
updateCurrDst(258814)
updateCurrDst(258838)
updateCurrDst(258892)
updateCurrDst(258990)
updateCurrDst(259365)
updateCurrDst(259396)
updateCurrDst(259413)
updateCurrDst(259509)
updateCurrDst(259662)
updateCurrDst(259686)
Heartbeat CPU 0 instructions: 137000000 cycles: 234301155 heartbeat IPC: 0.321973 cumulative IPC: 0.321433 (Simulation time: 0 hr 7 min 21 sec) 
updateCurrDst(259734)
updateCurrDst(260299)
updateCurrDst(260350)
updateCurrDst(260598)
updateCurrDst(260678)
updateCurrDst(260843)
updateCurrDst(260906)
updateCurrDst(261056)
updateCurrDst(261088)
updateCurrDst(261346)
updateCurrDst(261374)
updateCurrDst(261377)
updateCurrDst(261434)
updateCurrDst(261464)
updateCurrDst(261573)
updateCurrDst(261580)
updateCurrDst(261598)
updateCurrDst(261659)
updateCurrDst(261734)
*** Reached end of trace for Core: 0 Repeating trace: ./tracer/pull_u18_k3.xzafter: 138000000
Heartbeat CPU 0 instructions: 138000001 cycles: 237417420 heartbeat IPC: 0.320897 cumulative IPC: 0.321425 (Simulation time: 0 hr 7 min 25 sec) 
Finished CPU 0 instructions: 69000000 cycles: 214669199 cumulative IPC: 0.321425 (Simulation time: 0 hr 7 min 25 sec) 

ChampSim completed all CPUs

Region of Interest Statistics

CPU 0 cumulative IPC: 0.321425 instructions: 69000000 cycles: 214669199

Total ROB STALLS:                   24670440
STLB MISS ROB STALLS:                   1231
L1D  LOAD MISS ROB STALLS:            904515  Translation MISS ROB STALLS:             0
L2C  LOAD MISS ROB STALLS:            559616  Translation MISS ROB STALLS:             0
LLC  LOAD MISS ROB STALLS:             80653  Translation MISS ROB STALLS:             0

ITLB TOTAL     ACCESS:           9331648  HIT:    9331648  MISS:          0  HIT %:        100  MISS %:          0   MPKI: 0
ITLB LOAD TRANSLATION ACCESS:    9331648  HIT:    9331648  MISS:          0  HIT %:        100  MISS %:          0   MPKI: 0
ITLB AVERAGE MISS LATENCY:          -nan cycles
ITLB RQ ACCESS:    10184907	FORWARD:           0	MERGED:       853260	TO_CACHE:    9331647

DTLB TOTAL     ACCESS:          21474185  HIT:   20810033  MISS:     664152  HIT %:    96.9072  MISS %:    3.09279   MPKI: 9.62539
DTLB LOAD TRANSLATION ACCESS:   21474185  HIT:   20810033  MISS:     664152  HIT %:    96.9072  MISS %:    3.09279   MPKI: 9.62539
DTLB AVERAGE MISS LATENCY:       9.41076 cycles
DTLB RQ ACCESS:    29696180	FORWARD:           0	MERGED:      8221995	TO_CACHE:   21474185

STLB TOTAL     ACCESS:            664152  HIT:     662921  MISS:       1231  HIT %:    99.8147  MISS %:   0.185349   MPKI: 0.0178406
STLB LOAD TRANSLATION ACCESS:     664152  HIT:     662921  MISS:       1231  HIT %:    99.8147  MISS %:   0.185349   MPKI: 0.0178406
STLB AVERAGE MISS LATENCY:       221.616 cycles
STLB RQ ACCESS:      664152	FORWARD:           0	MERGED:            0	TO_CACHE:     664152

PSCL5 TOTAL     ACCESS:              1231  HIT:       1231  MISS:          0  HIT %:        100  MISS %:          0   MPKI: 0
PSCL5 LOAD TRANSLATION ACCESS:       1231  HIT:       1231  MISS:          0  HIT %:        100  MISS %:          0   MPKI: 0

PSCL4 TOTAL     ACCESS:              1231  HIT:       1231  MISS:          0  HIT %:        100  MISS %:          0   MPKI: 0
PSCL4 LOAD TRANSLATION ACCESS:       1231  HIT:       1231  MISS:          0  HIT %:        100  MISS %:          0   MPKI: 0

PSCL3 TOTAL     ACCESS:              1231  HIT:       1231  MISS:          0  HIT %:        100  MISS %:          0   MPKI: 0
PSCL3 LOAD TRANSLATION ACCESS:       1231  HIT:       1231  MISS:          0  HIT %:        100  MISS %:          0   MPKI: 0

PSCL2 TOTAL     ACCESS:              1231  HIT:       1230  MISS:          1  HIT %:    99.9188  MISS %:  0.0812348   MPKI: 1.44928e-05
PSCL2 LOAD TRANSLATION ACCESS:       1231  HIT:       1230  MISS:          1  HIT %:    99.9188  MISS %:  0.0812348   MPKI: 1.44928e-05

L1D TOTAL     ACCESS:          29696180  HIT:   28791665  MISS:     904515  HIT %:    96.9541  MISS %:     3.0459   MPKI: 13.1089  USED:     115715  UNUSED:     788800
L1D LOAD      ACCESS:          13789269  HIT:   12884754  MISS:     904515  HIT %:    93.4404  MISS %:    6.55956   MPKI: 13.1089  USED:     115715  UNUSED:     788800
L1D RFO       ACCESS:          15906911  HIT:   15906911  MISS:          0  HIT %:        100  MISS %:          0   MPKI: 0
L1D PTL1 TRANSLATION ACCESS:          0  HIT:          0  MISS:          0  HIT %:       -nan  MISS %:       -nan   MPKI: 0
L1D PTL2 TRANSLATION ACCESS:          0  HIT:          0  MISS:          0  HIT %:       -nan  MISS %:       -nan   MPKI: 0
L1D PTL3 TRANSLATION ACCESS:          0  HIT:          0  MISS:          0  HIT %:       -nan  MISS %:       -nan   MPKI: 0
L1D PTL4 TRANSLATION ACCESS:          0  HIT:          0  MISS:          0  HIT %:       -nan  MISS %:       -nan   MPKI: 0
L1D PTL5 TRANSLATION ACCESS:          0  HIT:          0  MISS:          0  HIT %:       -nan  MISS %:       -nan   MPKI: 0
L1D TOTAL EVICTIONS:             904515  TRANSLATION EVICTIONS:          0  TRANSLATION EVICTING TRANSALTION:          0  TRANSLATION EVICTING LOAD:          0  LOAD EVICTING TRANSALTION:          0  LOAD EVICTING LOAD:      904515
L1D AVERAGE MISS LATENCY:       45.9184 cycles  AVERAGE LOAD MISS LATENCY:       45.9184 cycles  AVERAGE LOAD TRANSLATION MISS LATENCY:          -nan cycles
L1D RQ ACCESS:    17144684	FORWARD:           0	MERGED:      1874302	TO_CACHE:   13789270
L1D WQ ACCESS:    15923136	FORWARD:     1481112	MERGED:        16226	TO_CACHE:   15906910

L1I TOTAL     ACCESS:          10184908  HIT:   10184908  MISS:          0  HIT %:        100  MISS %:          0   MPKI: 0
L1I LOAD      ACCESS:          10184908  HIT:   10184908  MISS:          0  HIT %:        100  MISS %:          0   MPKI: 0
L1I AVERAGE MISS LATENCY:          -nan cycles
L1I RQ ACCESS:    16098024	FORWARD:           0	MERGED:      5913117	TO_CACHE:   10184907

L2C TOTAL     ACCESS:            913486  HIT:     353870  MISS:     559616  HIT %:    38.7384  MISS %:    61.2616   MPKI: 8.11038  USED:     200357  UNUSED:     359259
L2C LOAD      ACCESS:            904515  HIT:     344899  MISS:     559616  HIT %:    38.1308  MISS %:    61.8692   MPKI: 8.11038  USED:     200357  UNUSED:     359259
L2C WRITEBACK ACCESS:              8971  HIT:       8971  MISS:          0  HIT %:        100  MISS %:          0   MPKI: 0
L2C PTL1 TRANSLATION ACCESS:          0  HIT:          0  MISS:          0  HIT %:       -nan  MISS %:       -nan   MPKI: 0
L2C PTL2 TRANSLATION ACCESS:          0  HIT:          0  MISS:          0  HIT %:       -nan  MISS %:       -nan   MPKI: 0
L2C PTL3 TRANSLATION ACCESS:          0  HIT:          0  MISS:          0  HIT %:       -nan  MISS %:       -nan   MPKI: 0
L2C PTL4 TRANSLATION ACCESS:          0  HIT:          0  MISS:          0  HIT %:       -nan  MISS %:       -nan   MPKI: 0
L2C PTL5 TRANSLATION ACCESS:          0  HIT:          0  MISS:          0  HIT %:       -nan  MISS %:       -nan   MPKI: 0
L2C TOTAL EVICTIONS:             559616  TRANSLATION EVICTIONS:          0  TRANSLATION EVICTING TRANSALTION:          0  TRANSLATION EVICTING LOAD:          0  LOAD EVICTING TRANSALTION:          0  LOAD EVICTING LOAD:      559616
L2C AVERAGE MISS LATENCY:       49.9739 cycles  AVERAGE LOAD MISS LATENCY:       49.9739 cycles  AVERAGE LOAD TRANSLATION MISS LATENCY:          -nan cycles
L2C RQ ACCESS:      904516	FORWARD:           0	MERGED:            0	TO_CACHE:     904516
L2C WQ ACCESS:        8971	FORWARD:           0	MERGED:            0	TO_CACHE:       8971

LLC TOTAL     ACCESS:            568574  HIT:     487883  MISS:      80691  HIT %:    85.8082  MISS %:    14.1918   MPKI: 1.16943  USED:          0  UNUSED:          0
LLC LOAD      ACCESS:            559616  HIT:     478963  MISS:      80653  HIT %:    85.5878  MISS %:    14.4122   MPKI: 1.16888  USED:          0  UNUSED:          0
LLC WRITEBACK ACCESS:              8958  HIT:       8920  MISS:         38  HIT %:    99.5758  MISS %:   0.424202   MPKI: 0.000550725
LLC PTL1 TRANSLATION ACCESS:          0  HIT:          0  MISS:          0  HIT %:       -nan  MISS %:       -nan   MPKI: 0
LLC PTL2 TRANSLATION ACCESS:          0  HIT:          0  MISS:          0  HIT %:       -nan  MISS %:       -nan   MPKI: 0
LLC PTL3 TRANSLATION ACCESS:          0  HIT:          0  MISS:          0  HIT %:       -nan  MISS %:       -nan   MPKI: 0
LLC PTL4 TRANSLATION ACCESS:          0  HIT:          0  MISS:          0  HIT %:       -nan  MISS %:       -nan   MPKI: 0
LLC PTL5 TRANSLATION ACCESS:          0  HIT:          0  MISS:          0  HIT %:       -nan  MISS %:       -nan   MPKI: 0
LLC TOTAL EVICTIONS:                  0  TRANSLATION EVICTIONS:          0  TRANSLATION EVICTING TRANSALTION:          0  TRANSLATION EVICTING LOAD:          0  LOAD EVICTING TRANSALTION:          0  LOAD EVICTING LOAD:           0
LLC AVERAGE MISS LATENCY:       138.525 cycles  AVERAGE LOAD MISS LATENCY:        138.59 cycles  AVERAGE LOAD TRANSLATION MISS LATENCY:          -nan cycles
LLC RQ ACCESS:      559616	FORWARD:           0	MERGED:            0	TO_CACHE:     559616
LLC WQ ACCESS:        8958	FORWARD:           0	MERGED:            0	TO_CACHE:       8958


RAW hits: 12118866
Loads Generated: 29263552
Loads sent to L1D: 17144684
Stores Generated: 15923135
Stores sent to L1D: 15923136
Major fault: 0 Minor fault: 3158
Allocated PAGES: 3158
IRREG DATA L1D ACCESS: 1570680
L2C ACCESSES: 1504633
L2C MISSES: 876387

DRAM Statistics
 CHANNEL 0
 RQ ROW_BUFFER_HIT:      25335  ROW_BUFFER_MISS:      56549
 DBUS_CONGESTED:          0
 WQ ROW_BUFFER_HIT:          6  ROW_BUFFER_MISS:       8986  FULL:          0

 AVG_CONGESTED_CYCLE: -

CPU 0 Branch Prediction Accuracy: 98.3147% MPKI: 2.06712 Average ROB Occupancy at Mispredict: 17.7625
Branch types
NOT_BRANCH: 60536152 87.7336%
BRANCH_DIRECT_JUMP: 0 0%
BRANCH_INDIRECT: 1003924 1.45496%
BRANCH_CONDITIONAL: 0 0%
BRANCH_DIRECT_CALL: 143526 0.208009%
BRANCH_INDIRECT_CALL: 2869005 4.15798%
BRANCH_RETURN: 3012529 4.36598%
BRANCH_OTHER: 1434502 2.07899%

DRAM PAGES: 1048576
Allocated PAGES: 3158
