
*** ChampSim Multicore Out-of-Order Simulator ***

Warmup Instructions: 69000000
Simulation Instructions: 69000000
Number of CPUs: 1
LLC sets: 2048
LLC ways: 16
Off-chip DRAM Size: 4096 MB Channels: 1 Width: 64-bit Data Rate: 6400 MT/s
CPU 0 runs ./tracer/pull_u18_k3.xz
.xz
BTB has LRU replacement policy
ITLB has LRU replacement policy
DTLB has LRU replacement policy
STLB has LRU replacement policy
L1I has LRU replacement policy
L1D has LRU replacement policy
L2C has LRU replacement policy
Initialize DRRIP state for LLC
Heartbeat CPU 0 instructions: 1000000 cycles: 350521 heartbeat IPC: 2.8529 cumulative IPC: 2.8529 (Simulation time: 0 hr 0 min 3 sec) 
Heartbeat CPU 0 instructions: 2000003 cycles: 701021 heartbeat IPC: 2.85308 cumulative IPC: 2.85299 (Simulation time: 0 hr 0 min 5 sec) 
Heartbeat CPU 0 instructions: 3000002 cycles: 1051515 heartbeat IPC: 2.85311 cumulative IPC: 2.85303 (Simulation time: 0 hr 0 min 8 sec) 
Heartbeat CPU 0 instructions: 4000001 cycles: 1402012 heartbeat IPC: 2.85309 cumulative IPC: 2.85304 (Simulation time: 0 hr 0 min 11 sec) 
Heartbeat CPU 0 instructions: 5000000 cycles: 1752509 heartbeat IPC: 2.85309 cumulative IPC: 2.85305 (Simulation time: 0 hr 0 min 14 sec) 
Heartbeat CPU 0 instructions: 6000003 cycles: 2103007 heartbeat IPC: 2.85309 cumulative IPC: 2.85306 (Simulation time: 0 hr 0 min 17 sec) 
Heartbeat CPU 0 instructions: 7000002 cycles: 2453506 heartbeat IPC: 2.85307 cumulative IPC: 2.85306 (Simulation time: 0 hr 0 min 19 sec) 
PIN_registerGraphs(random_u18_k3.sg,1)
Graphh Number of Nodes: 262144
Heartbeat CPU 0 instructions: 8000001 cycles: 2802306 heartbeat IPC: 2.86697 cumulative IPC: 2.85479 (Simulation time: 0 hr 0 min 22 sec) 
Heartbeat CPU 0 instructions: 9000001 cycles: 3135640 heartbeat IPC: 2.99999 cumulative IPC: 2.87023 (Simulation time: 0 hr 0 min 23 sec) 
Heartbeat CPU 0 instructions: 10000003 cycles: 3468914 heartbeat IPC: 3.00054 cumulative IPC: 2.88275 (Simulation time: 0 hr 0 min 25 sec) 
Heartbeat CPU 0 instructions: 11000000 cycles: 3802247 heartbeat IPC: 2.99999 cumulative IPC: 2.89303 (Simulation time: 0 hr 0 min 26 sec) 
Heartbeat CPU 0 instructions: 12000000 cycles: 4135581 heartbeat IPC: 2.99999 cumulative IPC: 2.90165 (Simulation time: 0 hr 0 min 28 sec) 
PIN_updateRegBaseBound( 94773131620560, 94773132669136)
updateCurrDst(3)
updateCurrDst(36)
updateCurrDst(94)
updateCurrDst(113)
updateCurrDst(141)
updateCurrDst(245)
updateCurrDst(460)
updateCurrDst(550)
updateCurrDst(671)
updateCurrDst(1099)
updateCurrDst(1153)
updateCurrDst(1281)
updateCurrDst(1539)
updateCurrDst(1613)
updateCurrDst(1702)
updateCurrDst(1718)
updateCurrDst(1747)
updateCurrDst(1841)
Heartbeat CPU 0 instructions: 13000001 cycles: 4463427 heartbeat IPC: 3.05022 cumulative IPC: 2.91256 (Simulation time: 0 hr 0 min 31 sec) 
updateCurrDst(1963)
updateCurrDst(2095)
updateCurrDst(2147)
updateCurrDst(2290)
updateCurrDst(2361)
updateCurrDst(2375)
updateCurrDst(2429)
updateCurrDst(2542)
updateCurrDst(2668)
updateCurrDst(2723)
updateCurrDst(2745)
updateCurrDst(2755)
updateCurrDst(2856)
updateCurrDst(3271)
updateCurrDst(3377)
updateCurrDst(3416)
updateCurrDst(3848)
updateCurrDst(3922)
updateCurrDst(3949)
updateCurrDst(3970)
Heartbeat CPU 0 instructions: 14000001 cycles: 4790193 heartbeat IPC: 3.06029 cumulative IPC: 2.92264 (Simulation time: 0 hr 0 min 34 sec) 
updateCurrDst(4009)
updateCurrDst(4088)
updateCurrDst(4089)
updateCurrDst(4164)
updateCurrDst(4194)
updateCurrDst(4195)
updateCurrDst(4198)
updateCurrDst(4453)
updateCurrDst(4492)
updateCurrDst(4645)
updateCurrDst(4767)
updateCurrDst(4899)
updateCurrDst(4913)
updateCurrDst(4914)
updateCurrDst(4927)
updateCurrDst(4978)
updateCurrDst(5025)
updateCurrDst(5044)
updateCurrDst(5099)
updateCurrDst(5285)
updateCurrDst(5365)
updateCurrDst(5614)
updateCurrDst(5851)
updateCurrDst(5872)
Heartbeat CPU 0 instructions: 15000001 cycles: 5116761 heartbeat IPC: 3.06215 cumulative IPC: 2.93154 (Simulation time: 0 hr 0 min 37 sec) 
updateCurrDst(6088)
updateCurrDst(6404)
updateCurrDst(6940)
updateCurrDst(7058)
updateCurrDst(7100)
updateCurrDst(7174)
updateCurrDst(7439)
updateCurrDst(7484)
updateCurrDst(7846)
updateCurrDst(7959)
updateCurrDst(7994)
updateCurrDst(8013)
updateCurrDst(8131)
updateCurrDst(8132)
Heartbeat CPU 0 instructions: 16000001 cycles: 5443470 heartbeat IPC: 3.06083 cumulative IPC: 2.9393 (Simulation time: 0 hr 0 min 40 sec) 
updateCurrDst(8229)
updateCurrDst(8276)
updateCurrDst(8313)
updateCurrDst(8326)
updateCurrDst(8341)
updateCurrDst(8344)
updateCurrDst(8352)
updateCurrDst(8656)
updateCurrDst(8938)
updateCurrDst(9003)
updateCurrDst(9033)
updateCurrDst(9041)
updateCurrDst(9196)
updateCurrDst(9419)
updateCurrDst(9632)
updateCurrDst(9649)
updateCurrDst(9691)
updateCurrDst(9782)
updateCurrDst(9820)
Heartbeat CPU 0 instructions: 17000003 cycles: 5770198 heartbeat IPC: 3.06066 cumulative IPC: 2.94617 (Simulation time: 0 hr 0 min 43 sec) 
updateCurrDst(10243)
updateCurrDst(10382)
updateCurrDst(10401)
updateCurrDst(10452)
updateCurrDst(10515)
updateCurrDst(10535)
updateCurrDst(10712)
updateCurrDst(10750)
updateCurrDst(10751)
updateCurrDst(10773)
updateCurrDst(10808)
updateCurrDst(11160)
updateCurrDst(11392)
updateCurrDst(11443)
updateCurrDst(11691)
updateCurrDst(11726)
updateCurrDst(11960)
Heartbeat CPU 0 instructions: 18000003 cycles: 6096993 heartbeat IPC: 3.06002 cumulative IPC: 2.95228 (Simulation time: 0 hr 0 min 46 sec) 
updateCurrDst(12382)
updateCurrDst(12426)
updateCurrDst(12550)
updateCurrDst(12974)
updateCurrDst(13081)
updateCurrDst(13473)
updateCurrDst(13511)
updateCurrDst(13619)
updateCurrDst(13643)
updateCurrDst(13700)
updateCurrDst(14103)
updateCurrDst(14110)
updateCurrDst(14140)
updateCurrDst(14167)
updateCurrDst(14359)
Heartbeat CPU 0 instructions: 19000001 cycles: 6423795 heartbeat IPC: 3.05995 cumulative IPC: 2.95775 (Simulation time: 0 hr 0 min 49 sec) 
updateCurrDst(14573)
updateCurrDst(14664)
updateCurrDst(14738)
updateCurrDst(14772)
updateCurrDst(14832)
updateCurrDst(14880)
updateCurrDst(14955)
updateCurrDst(15042)
updateCurrDst(15121)
updateCurrDst(15345)
updateCurrDst(15483)
updateCurrDst(15629)
updateCurrDst(15733)
updateCurrDst(15776)
updateCurrDst(15868)
updateCurrDst(15931)
updateCurrDst(15937)
updateCurrDst(16245)
updateCurrDst(16277)
updateCurrDst(16354)
updateCurrDst(16462)
Heartbeat CPU 0 instructions: 20000002 cycles: 6750291 heartbeat IPC: 3.06283 cumulative IPC: 2.96284 (Simulation time: 0 hr 0 min 52 sec) 
updateCurrDst(16559)
updateCurrDst(16607)
updateCurrDst(17090)
updateCurrDst(17210)
updateCurrDst(17240)
updateCurrDst(17360)
updateCurrDst(17664)
updateCurrDst(17677)
updateCurrDst(17685)
updateCurrDst(17778)
updateCurrDst(18054)
updateCurrDst(18208)
updateCurrDst(18532)
Heartbeat CPU 0 instructions: 21000003 cycles: 7076746 heartbeat IPC: 3.06321 cumulative IPC: 2.96747 (Simulation time: 0 hr 0 min 55 sec) 
updateCurrDst(18610)
updateCurrDst(18640)
updateCurrDst(18675)
updateCurrDst(18731)
updateCurrDst(18735)
updateCurrDst(18912)
updateCurrDst(19175)
updateCurrDst(19248)
updateCurrDst(19310)
updateCurrDst(19523)
updateCurrDst(19545)
updateCurrDst(19596)
updateCurrDst(19767)
updateCurrDst(19815)
updateCurrDst(19835)
updateCurrDst(20159)
updateCurrDst(20215)
updateCurrDst(20255)
updateCurrDst(20325)
updateCurrDst(20379)
updateCurrDst(20440)
updateCurrDst(20474)
updateCurrDst(20482)
updateCurrDst(20512)
updateCurrDst(20529)
updateCurrDst(20560)
updateCurrDst(20613)
Heartbeat CPU 0 instructions: 22000000 cycles: 7403401 heartbeat IPC: 3.06132 cumulative IPC: 2.97161 (Simulation time: 0 hr 0 min 58 sec) 
updateCurrDst(20623)
updateCurrDst(20760)
updateCurrDst(20804)
updateCurrDst(20932)
updateCurrDst(20951)
updateCurrDst(21165)
updateCurrDst(21257)
updateCurrDst(21268)
updateCurrDst(21277)
updateCurrDst(21293)
updateCurrDst(21581)
updateCurrDst(21594)
updateCurrDst(21645)
updateCurrDst(21879)
updateCurrDst(21883)
updateCurrDst(21887)
updateCurrDst(22112)
updateCurrDst(22481)
updateCurrDst(22571)
updateCurrDst(22587)
Heartbeat CPU 0 instructions: 23000000 cycles: 7730095 heartbeat IPC: 3.06097 cumulative IPC: 2.97538 (Simulation time: 0 hr 1 min 1 sec) 
updateCurrDst(23317)
updateCurrDst(23455)
updateCurrDst(23823)
updateCurrDst(23933)
updateCurrDst(24017)
updateCurrDst(24063)
updateCurrDst(24080)
updateCurrDst(24091)
updateCurrDst(24228)
updateCurrDst(24645)
updateCurrDst(24648)
updateCurrDst(24749)
Heartbeat CPU 0 instructions: 24000003 cycles: 8056546 heartbeat IPC: 3.06326 cumulative IPC: 2.97894 (Simulation time: 0 hr 1 min 4 sec) 
updateCurrDst(24850)
updateCurrDst(25040)
updateCurrDst(25072)
updateCurrDst(25153)
updateCurrDst(25231)
updateCurrDst(25242)
updateCurrDst(25480)
updateCurrDst(25632)
updateCurrDst(25830)
updateCurrDst(25907)
updateCurrDst(26212)
updateCurrDst(26321)
updateCurrDst(26590)
updateCurrDst(26735)
updateCurrDst(26741)
Heartbeat CPU 0 instructions: 25000002 cycles: 8383076 heartbeat IPC: 3.0625 cumulative IPC: 2.9822 (Simulation time: 0 hr 1 min 7 sec) 
updateCurrDst(26942)
updateCurrDst(26975)
updateCurrDst(27032)
updateCurrDst(27043)
updateCurrDst(27139)
updateCurrDst(27225)
updateCurrDst(27233)
updateCurrDst(27306)
updateCurrDst(27400)
updateCurrDst(27413)
updateCurrDst(27415)
updateCurrDst(27496)
updateCurrDst(27583)
updateCurrDst(27603)
updateCurrDst(27637)
updateCurrDst(27842)
updateCurrDst(27911)
updateCurrDst(28127)
updateCurrDst(28135)
updateCurrDst(28145)
updateCurrDst(28171)
updateCurrDst(28341)
updateCurrDst(28462)
updateCurrDst(28468)
updateCurrDst(28512)
updateCurrDst(28778)
updateCurrDst(28806)
updateCurrDst(28868)
updateCurrDst(28898)
Heartbeat CPU 0 instructions: 26000001 cycles: 8709553 heartbeat IPC: 3.063 cumulative IPC: 2.98523 (Simulation time: 0 hr 1 min 10 sec) 
updateCurrDst(28963)
updateCurrDst(28965)
updateCurrDst(28977)
updateCurrDst(29243)
updateCurrDst(29261)
updateCurrDst(29560)
updateCurrDst(29587)
updateCurrDst(29673)
updateCurrDst(29698)
updateCurrDst(29779)
updateCurrDst(29795)
updateCurrDst(29857)
updateCurrDst(29934)
updateCurrDst(29966)
updateCurrDst(30117)
updateCurrDst(30245)
updateCurrDst(30262)
updateCurrDst(30301)
updateCurrDst(30433)
updateCurrDst(30468)
updateCurrDst(30504)
updateCurrDst(30542)
updateCurrDst(30695)
updateCurrDst(30783)
updateCurrDst(30847)
updateCurrDst(30916)
Heartbeat CPU 0 instructions: 27000002 cycles: 9035939 heartbeat IPC: 3.06386 cumulative IPC: 2.98807 (Simulation time: 0 hr 1 min 13 sec) 
updateCurrDst(30983)
updateCurrDst(31188)
updateCurrDst(31366)
updateCurrDst(31375)
updateCurrDst(31455)
updateCurrDst(31564)
updateCurrDst(31660)
updateCurrDst(31669)
updateCurrDst(31972)
updateCurrDst(32083)
updateCurrDst(32108)
updateCurrDst(32316)
updateCurrDst(32495)
updateCurrDst(32536)
updateCurrDst(32598)
updateCurrDst(32712)
updateCurrDst(32855)
updateCurrDst(33018)
Heartbeat CPU 0 instructions: 28000003 cycles: 9362384 heartbeat IPC: 3.06331 cumulative IPC: 2.99069 (Simulation time: 0 hr 1 min 16 sec) 
updateCurrDst(33083)
updateCurrDst(33130)
updateCurrDst(33327)
updateCurrDst(33341)
updateCurrDst(33697)
updateCurrDst(33891)
updateCurrDst(33919)
updateCurrDst(33980)
updateCurrDst(34136)
updateCurrDst(34360)
updateCurrDst(34435)
updateCurrDst(34503)
updateCurrDst(34545)
updateCurrDst(34579)
updateCurrDst(34662)
updateCurrDst(34738)
updateCurrDst(34746)
updateCurrDst(34971)
Heartbeat CPU 0 instructions: 29000001 cycles: 9689008 heartbeat IPC: 3.06162 cumulative IPC: 2.99308 (Simulation time: 0 hr 1 min 19 sec) 
updateCurrDst(35195)
updateCurrDst(35233)
updateCurrDst(35240)
updateCurrDst(35687)
updateCurrDst(35985)
updateCurrDst(35997)
updateCurrDst(36020)
updateCurrDst(36134)
updateCurrDst(36172)
updateCurrDst(36250)
updateCurrDst(36281)
updateCurrDst(36427)
updateCurrDst(36462)
updateCurrDst(36607)
updateCurrDst(36659)
updateCurrDst(36750)
updateCurrDst(36813)
updateCurrDst(36840)
updateCurrDst(36867)
updateCurrDst(37096)
updateCurrDst(37114)
updateCurrDst(37186)
Heartbeat CPU 0 instructions: 30000001 cycles: 10015376 heartbeat IPC: 3.06403 cumulative IPC: 2.99539 (Simulation time: 0 hr 1 min 22 sec) 
updateCurrDst(37195)
updateCurrDst(37300)
updateCurrDst(37309)
updateCurrDst(37448)
updateCurrDst(37451)
updateCurrDst(37580)
updateCurrDst(37583)
updateCurrDst(37596)
updateCurrDst(37772)
updateCurrDst(38059)
updateCurrDst(38119)
updateCurrDst(38155)
updateCurrDst(38431)
updateCurrDst(38459)
updateCurrDst(38537)
updateCurrDst(38597)
updateCurrDst(38603)
updateCurrDst(38650)
updateCurrDst(38725)
updateCurrDst(38739)
updateCurrDst(38872)
updateCurrDst(38873)
updateCurrDst(39027)
updateCurrDst(39030)
updateCurrDst(39088)
updateCurrDst(39259)
Heartbeat CPU 0 instructions: 31000000 cycles: 10341916 heartbeat IPC: 3.06241 cumulative IPC: 2.99751 (Simulation time: 0 hr 1 min 25 sec) 
updateCurrDst(39294)
updateCurrDst(39440)
updateCurrDst(39971)
updateCurrDst(40280)
updateCurrDst(40502)
updateCurrDst(40527)
updateCurrDst(40607)
updateCurrDst(40726)
updateCurrDst(40801)
updateCurrDst(40932)
updateCurrDst(40959)
updateCurrDst(41235)
updateCurrDst(41332)
Heartbeat CPU 0 instructions: 32000003 cycles: 10668269 heartbeat IPC: 3.06418 cumulative IPC: 2.99955 (Simulation time: 0 hr 1 min 28 sec) 
updateCurrDst(41420)
updateCurrDst(41523)
updateCurrDst(41550)
updateCurrDst(41578)
updateCurrDst(41640)
updateCurrDst(41696)
updateCurrDst(41846)
updateCurrDst(41940)
updateCurrDst(42202)
updateCurrDst(42219)
updateCurrDst(42343)
updateCurrDst(42599)
updateCurrDst(42720)
updateCurrDst(42750)
updateCurrDst(42779)
updateCurrDst(42804)
updateCurrDst(43130)
Heartbeat CPU 0 instructions: 33000000 cycles: 10994712 heartbeat IPC: 3.06331 cumulative IPC: 3.00144 (Simulation time: 0 hr 1 min 31 sec) 
updateCurrDst(43471)
updateCurrDst(43670)
updateCurrDst(43783)
updateCurrDst(43917)
updateCurrDst(43988)
updateCurrDst(44023)
updateCurrDst(44136)
updateCurrDst(44254)
updateCurrDst(44308)
updateCurrDst(44372)
updateCurrDst(44376)
updateCurrDst(44490)
updateCurrDst(44504)
updateCurrDst(44538)
updateCurrDst(44735)
updateCurrDst(44742)
updateCurrDst(44773)
updateCurrDst(44805)
updateCurrDst(44854)
updateCurrDst(44966)
updateCurrDst(44968)
updateCurrDst(45012)
updateCurrDst(45063)
updateCurrDst(45180)
updateCurrDst(45208)
updateCurrDst(45252)
updateCurrDst(45291)
updateCurrDst(45340)
Heartbeat CPU 0 instructions: 34000001 cycles: 11321381 heartbeat IPC: 3.06121 cumulative IPC: 3.00317 (Simulation time: 0 hr 1 min 34 sec) 
updateCurrDst(45667)
updateCurrDst(45680)
updateCurrDst(45687)
updateCurrDst(45756)
updateCurrDst(45794)
updateCurrDst(45795)
updateCurrDst(45821)
updateCurrDst(45891)
updateCurrDst(46023)
updateCurrDst(46040)
updateCurrDst(46106)
updateCurrDst(46130)
updateCurrDst(46159)
updateCurrDst(46224)
updateCurrDst(46251)
updateCurrDst(46267)
updateCurrDst(46316)
updateCurrDst(46371)
updateCurrDst(46428)
updateCurrDst(46535)
updateCurrDst(46611)
updateCurrDst(46710)
updateCurrDst(46731)
updateCurrDst(46868)
updateCurrDst(46956)
updateCurrDst(47107)
updateCurrDst(47257)
updateCurrDst(47303)
updateCurrDst(47318)
updateCurrDst(47360)
Heartbeat CPU 0 instructions: 35000000 cycles: 11647923 heartbeat IPC: 3.06239 cumulative IPC: 3.00483 (Simulation time: 0 hr 1 min 37 sec) 
updateCurrDst(47665)
updateCurrDst(47874)
updateCurrDst(47890)
updateCurrDst(48047)
updateCurrDst(48107)
updateCurrDst(48122)
updateCurrDst(48209)
updateCurrDst(48229)
updateCurrDst(48267)
updateCurrDst(48345)
updateCurrDst(48369)
updateCurrDst(48489)
updateCurrDst(48527)
updateCurrDst(48548)
updateCurrDst(48644)
updateCurrDst(48754)
updateCurrDst(48851)
updateCurrDst(48883)
updateCurrDst(48975)
updateCurrDst(48982)
updateCurrDst(49018)
updateCurrDst(49084)
updateCurrDst(49134)
updateCurrDst(49137)
updateCurrDst(49257)
updateCurrDst(49276)
updateCurrDst(49405)
updateCurrDst(49569)
Heartbeat CPU 0 instructions: 36000003 cycles: 11974236 heartbeat IPC: 3.06455 cumulative IPC: 3.00646 (Simulation time: 0 hr 1 min 40 sec) 
updateCurrDst(49665)
updateCurrDst(49681)
updateCurrDst(49859)
updateCurrDst(49895)
updateCurrDst(49992)
updateCurrDst(50241)
updateCurrDst(50610)
updateCurrDst(50684)
updateCurrDst(50745)
updateCurrDst(51028)
updateCurrDst(51234)
updateCurrDst(51292)
updateCurrDst(51297)
Heartbeat CPU 0 instructions: 37000001 cycles: 12300871 heartbeat IPC: 3.06152 cumulative IPC: 3.00792 (Simulation time: 0 hr 1 min 43 sec) 
updateCurrDst(52054)
updateCurrDst(52173)
updateCurrDst(52226)
updateCurrDst(52234)
updateCurrDst(52258)
updateCurrDst(52549)
updateCurrDst(52575)
updateCurrDst(52748)
updateCurrDst(52754)
updateCurrDst(52779)
updateCurrDst(52851)
updateCurrDst(52874)
updateCurrDst(52897)
updateCurrDst(53145)
updateCurrDst(53150)
updateCurrDst(53163)
updateCurrDst(53333)
updateCurrDst(53355)
updateCurrDst(53539)
updateCurrDst(53573)
updateCurrDst(53609)
Heartbeat CPU 0 instructions: 38000000 cycles: 12627255 heartbeat IPC: 3.06387 cumulative IPC: 3.00936 (Simulation time: 0 hr 1 min 46 sec) 
updateCurrDst(54013)
updateCurrDst(54116)
updateCurrDst(54175)
updateCurrDst(54185)
updateCurrDst(54216)
updateCurrDst(54325)
updateCurrDst(54433)
updateCurrDst(54460)
updateCurrDst(54638)
updateCurrDst(54699)
updateCurrDst(54701)
updateCurrDst(54950)
updateCurrDst(55140)
updateCurrDst(55190)
updateCurrDst(55386)
updateCurrDst(55479)
updateCurrDst(55546)
updateCurrDst(55580)
updateCurrDst(55815)
Heartbeat CPU 0 instructions: 39000001 cycles: 12953792 heartbeat IPC: 3.06244 cumulative IPC: 3.0107 (Simulation time: 0 hr 1 min 49 sec) 
updateCurrDst(55933)
updateCurrDst(56207)
updateCurrDst(56339)
updateCurrDst(56471)
updateCurrDst(56489)
updateCurrDst(56585)
updateCurrDst(56612)
updateCurrDst(56735)
updateCurrDst(56857)
updateCurrDst(57027)
updateCurrDst(57299)
updateCurrDst(57414)
updateCurrDst(57525)
updateCurrDst(57701)
updateCurrDst(57822)
updateCurrDst(57880)
updateCurrDst(57951)
Heartbeat CPU 0 instructions: 40000000 cycles: 13280092 heartbeat IPC: 3.06466 cumulative IPC: 3.01203 (Simulation time: 0 hr 1 min 52 sec) 
updateCurrDst(58048)
updateCurrDst(58130)
updateCurrDst(58178)
updateCurrDst(58427)
updateCurrDst(58910)
updateCurrDst(58946)
updateCurrDst(59250)
updateCurrDst(59255)
updateCurrDst(59261)
updateCurrDst(59282)
updateCurrDst(59316)
updateCurrDst(59335)
updateCurrDst(59566)
updateCurrDst(59679)
updateCurrDst(59683)
updateCurrDst(59765)
updateCurrDst(59884)
updateCurrDst(59903)
updateCurrDst(59968)
Heartbeat CPU 0 instructions: 41000001 cycles: 13606558 heartbeat IPC: 3.06311 cumulative IPC: 3.01325 (Simulation time: 0 hr 1 min 55 sec) 
updateCurrDst(60035)
updateCurrDst(60421)
updateCurrDst(60467)
updateCurrDst(60493)
updateCurrDst(60568)
updateCurrDst(60723)
updateCurrDst(60749)
updateCurrDst(60889)
updateCurrDst(60943)
updateCurrDst(61032)
updateCurrDst(61059)
updateCurrDst(61571)
updateCurrDst(61760)
updateCurrDst(61803)
updateCurrDst(61840)
updateCurrDst(61884)
updateCurrDst(61959)
updateCurrDst(61997)
Heartbeat CPU 0 instructions: 42000001 cycles: 13932891 heartbeat IPC: 3.06435 cumulative IPC: 3.01445 (Simulation time: 0 hr 1 min 59 sec) 
updateCurrDst(62096)
updateCurrDst(62354)
updateCurrDst(62445)
updateCurrDst(62460)
updateCurrDst(62497)
updateCurrDst(62572)
updateCurrDst(62672)
updateCurrDst(62693)
updateCurrDst(62756)
updateCurrDst(62767)
updateCurrDst(63067)
updateCurrDst(63327)
updateCurrDst(63329)
updateCurrDst(63423)
updateCurrDst(63452)
updateCurrDst(63508)
updateCurrDst(63951)
updateCurrDst(64121)
Heartbeat CPU 0 instructions: 43000000 cycles: 14259433 heartbeat IPC: 3.06239 cumulative IPC: 3.01555 (Simulation time: 0 hr 2 min 2 sec) 
updateCurrDst(64201)
updateCurrDst(64228)
updateCurrDst(64246)
updateCurrDst(64274)
updateCurrDst(64468)
updateCurrDst(64580)
updateCurrDst(64629)
updateCurrDst(64656)
updateCurrDst(64723)
updateCurrDst(64770)
updateCurrDst(64958)
updateCurrDst(65006)
updateCurrDst(65362)
updateCurrDst(65373)
updateCurrDst(65581)
updateCurrDst(65772)
updateCurrDst(65941)
updateCurrDst(65942)
updateCurrDst(66266)
Heartbeat CPU 0 instructions: 44000000 cycles: 14586159 heartbeat IPC: 3.06067 cumulative IPC: 3.01656 (Simulation time: 0 hr 2 min 6 sec) 
updateCurrDst(66370)
updateCurrDst(66395)
updateCurrDst(66561)
updateCurrDst(66649)
updateCurrDst(66719)
updateCurrDst(66873)
updateCurrDst(66980)
updateCurrDst(67052)
updateCurrDst(67115)
updateCurrDst(67163)
updateCurrDst(67318)
updateCurrDst(67370)
updateCurrDst(67401)
updateCurrDst(67416)
updateCurrDst(67444)
updateCurrDst(67448)
updateCurrDst(67668)
updateCurrDst(67670)
updateCurrDst(67719)
updateCurrDst(67971)
updateCurrDst(67988)
updateCurrDst(68140)
updateCurrDst(68275)
updateCurrDst(68276)
Heartbeat CPU 0 instructions: 45000000 cycles: 14912748 heartbeat IPC: 3.06195 cumulative IPC: 3.01755 (Simulation time: 0 hr 2 min 9 sec) 
updateCurrDst(68380)
updateCurrDst(68578)
updateCurrDst(68632)
updateCurrDst(68684)
updateCurrDst(68832)
updateCurrDst(68932)
updateCurrDst(68953)
updateCurrDst(69228)
updateCurrDst(69609)
updateCurrDst(69660)
updateCurrDst(69745)
updateCurrDst(69746)
updateCurrDst(69828)
updateCurrDst(69983)
updateCurrDst(70058)
updateCurrDst(70165)
updateCurrDst(70196)
updateCurrDst(70205)
updateCurrDst(70401)
Heartbeat CPU 0 instructions: 46000000 cycles: 15239012 heartbeat IPC: 3.065 cumulative IPC: 3.01857 (Simulation time: 0 hr 2 min 12 sec) 
updateCurrDst(70476)
updateCurrDst(70552)
updateCurrDst(70605)
updateCurrDst(70608)
updateCurrDst(70642)
updateCurrDst(70713)
updateCurrDst(70834)
updateCurrDst(70881)
updateCurrDst(70887)
updateCurrDst(70902)
updateCurrDst(70970)
updateCurrDst(70979)
updateCurrDst(71034)
updateCurrDst(71176)
updateCurrDst(71192)
updateCurrDst(71193)
updateCurrDst(71224)
updateCurrDst(71306)
updateCurrDst(71405)
updateCurrDst(71468)
updateCurrDst(71620)
updateCurrDst(71672)
updateCurrDst(71843)
updateCurrDst(71970)
updateCurrDst(71992)
updateCurrDst(72038)
updateCurrDst(72144)
updateCurrDst(72374)
updateCurrDst(72381)
updateCurrDst(72387)
Heartbeat CPU 0 instructions: 47000002 cycles: 15565218 heartbeat IPC: 3.06555 cumulative IPC: 3.01955 (Simulation time: 0 hr 2 min 15 sec) 
updateCurrDst(72568)
updateCurrDst(72808)
updateCurrDst(72964)
updateCurrDst(73101)
updateCurrDst(73468)
updateCurrDst(73567)
updateCurrDst(73738)
updateCurrDst(73861)
updateCurrDst(74026)
updateCurrDst(74043)
updateCurrDst(74178)
updateCurrDst(74499)
Heartbeat CPU 0 instructions: 48000002 cycles: 15891788 heartbeat IPC: 3.06213 cumulative IPC: 3.02043 (Simulation time: 0 hr 2 min 18 sec) 
updateCurrDst(74691)
updateCurrDst(74766)
updateCurrDst(74927)
updateCurrDst(75008)
updateCurrDst(75068)
updateCurrDst(75133)
updateCurrDst(75154)
updateCurrDst(75249)
updateCurrDst(75533)
updateCurrDst(75571)
updateCurrDst(75601)
updateCurrDst(75610)
updateCurrDst(75695)
updateCurrDst(75791)
updateCurrDst(75797)
updateCurrDst(75873)
updateCurrDst(75957)
updateCurrDst(76277)
updateCurrDst(76395)
updateCurrDst(76594)
Heartbeat CPU 0 instructions: 49000003 cycles: 16218050 heartbeat IPC: 3.06502 cumulative IPC: 3.02133 (Simulation time: 0 hr 2 min 22 sec) 
updateCurrDst(76644)
updateCurrDst(76883)
updateCurrDst(77046)
updateCurrDst(77104)
updateCurrDst(77172)
updateCurrDst(77348)
updateCurrDst(77461)
updateCurrDst(77500)
updateCurrDst(77590)
updateCurrDst(77782)
updateCurrDst(77817)
updateCurrDst(77818)
updateCurrDst(78056)
updateCurrDst(78066)
updateCurrDst(78194)
updateCurrDst(78216)
updateCurrDst(78221)
updateCurrDst(78258)
updateCurrDst(78344)
updateCurrDst(78522)
updateCurrDst(78574)
updateCurrDst(78650)
Heartbeat CPU 0 instructions: 50000000 cycles: 16544575 heartbeat IPC: 3.06254 cumulative IPC: 3.02214 (Simulation time: 0 hr 2 min 26 sec) 
updateCurrDst(78781)
updateCurrDst(78809)
updateCurrDst(79041)
updateCurrDst(79086)
updateCurrDst(79094)
updateCurrDst(79356)
updateCurrDst(79425)
updateCurrDst(79560)
updateCurrDst(79565)
updateCurrDst(80039)
updateCurrDst(80053)
updateCurrDst(80118)
updateCurrDst(80158)
updateCurrDst(80430)
updateCurrDst(80433)
updateCurrDst(80480)
updateCurrDst(80570)
updateCurrDst(80619)
updateCurrDst(80643)
Heartbeat CPU 0 instructions: 51000003 cycles: 16870815 heartbeat IPC: 3.06524 cumulative IPC: 3.02297 (Simulation time: 0 hr 2 min 29 sec) 
updateCurrDst(80789)
updateCurrDst(80884)
updateCurrDst(80914)
updateCurrDst(81072)
updateCurrDst(81175)
updateCurrDst(81204)
updateCurrDst(81231)
updateCurrDst(81245)
updateCurrDst(81265)
updateCurrDst(81307)
updateCurrDst(81466)
updateCurrDst(81640)
updateCurrDst(81687)
updateCurrDst(81708)
updateCurrDst(81757)
updateCurrDst(81760)
updateCurrDst(81846)
updateCurrDst(81911)
updateCurrDst(82078)
updateCurrDst(82100)
updateCurrDst(82196)
updateCurrDst(82269)
updateCurrDst(82435)
updateCurrDst(82461)
updateCurrDst(82513)
updateCurrDst(82521)
updateCurrDst(82534)
updateCurrDst(82565)
updateCurrDst(82662)
updateCurrDst(82675)
updateCurrDst(82695)
updateCurrDst(82752)
updateCurrDst(82819)
Heartbeat CPU 0 instructions: 52000001 cycles: 17197288 heartbeat IPC: 3.06303 cumulative IPC: 3.02373 (Simulation time: 0 hr 2 min 32 sec) 
updateCurrDst(82916)
updateCurrDst(83003)
updateCurrDst(83099)
updateCurrDst(83114)
updateCurrDst(83196)
updateCurrDst(83465)
updateCurrDst(83535)
updateCurrDst(83757)
updateCurrDst(83899)
updateCurrDst(84053)
updateCurrDst(84111)
updateCurrDst(84141)
updateCurrDst(84153)
updateCurrDst(84241)
updateCurrDst(84253)
updateCurrDst(84475)
updateCurrDst(84711)
updateCurrDst(84922)
Heartbeat CPU 0 instructions: 53000003 cycles: 17523790 heartbeat IPC: 3.06277 cumulative IPC: 3.02446 (Simulation time: 0 hr 2 min 35 sec) 
updateCurrDst(84953)
updateCurrDst(85325)
updateCurrDst(85490)
updateCurrDst(85708)
updateCurrDst(85803)
updateCurrDst(85985)
updateCurrDst(85991)
updateCurrDst(86007)
updateCurrDst(86114)
updateCurrDst(86152)
updateCurrDst(86413)
updateCurrDst(86454)
updateCurrDst(86465)
updateCurrDst(86479)
updateCurrDst(86485)
updateCurrDst(86522)
updateCurrDst(86568)
updateCurrDst(86573)
updateCurrDst(86581)
updateCurrDst(86651)
updateCurrDst(86717)
Heartbeat CPU 0 instructions: 54000000 cycles: 17850113 heartbeat IPC: 3.06444 cumulative IPC: 3.02519 (Simulation time: 0 hr 2 min 38 sec) 
updateCurrDst(87098)
updateCurrDst(87256)
updateCurrDst(87373)
updateCurrDst(87485)
updateCurrDst(87514)
updateCurrDst(87604)
updateCurrDst(87665)
updateCurrDst(87705)
updateCurrDst(87751)
updateCurrDst(88142)
updateCurrDst(88162)
updateCurrDst(88169)
updateCurrDst(88565)
updateCurrDst(88580)
updateCurrDst(88700)
updateCurrDst(88719)
updateCurrDst(88772)
updateCurrDst(88779)
Heartbeat CPU 0 instructions: 55000000 cycles: 18176821 heartbeat IPC: 3.06084 cumulative IPC: 3.02583 (Simulation time: 0 hr 2 min 42 sec) 
updateCurrDst(89528)
updateCurrDst(89634)
updateCurrDst(89937)
updateCurrDst(89941)
updateCurrDst(90037)
updateCurrDst(90237)
updateCurrDst(90309)
updateCurrDst(90510)
updateCurrDst(90545)
updateCurrDst(90707)
updateCurrDst(90866)
updateCurrDst(90935)
updateCurrDst(91092)
Heartbeat CPU 0 instructions: 56000000 cycles: 18503385 heartbeat IPC: 3.06219 cumulative IPC: 3.02647 (Simulation time: 0 hr 2 min 45 sec) 
updateCurrDst(91192)
updateCurrDst(91255)
updateCurrDst(91361)
updateCurrDst(91397)
updateCurrDst(91421)
updateCurrDst(91516)
updateCurrDst(91518)
updateCurrDst(91667)
updateCurrDst(91724)
updateCurrDst(91904)
updateCurrDst(91913)
updateCurrDst(92103)
updateCurrDst(92334)
updateCurrDst(92350)
updateCurrDst(92412)
updateCurrDst(92471)
updateCurrDst(92554)
updateCurrDst(92874)
updateCurrDst(92954)
updateCurrDst(93086)
updateCurrDst(93111)
updateCurrDst(93211)
Heartbeat CPU 0 instructions: 57000001 cycles: 18829405 heartbeat IPC: 3.0673 cumulative IPC: 3.02718 (Simulation time: 0 hr 2 min 48 sec) 
updateCurrDst(93367)
updateCurrDst(93374)
updateCurrDst(93423)
updateCurrDst(93512)
updateCurrDst(93558)
updateCurrDst(93645)
updateCurrDst(93788)
updateCurrDst(93838)
updateCurrDst(94045)
updateCurrDst(94222)
updateCurrDst(94226)
updateCurrDst(94249)
updateCurrDst(94461)
updateCurrDst(94508)
updateCurrDst(94604)
updateCurrDst(94621)
updateCurrDst(94645)
updateCurrDst(94786)
updateCurrDst(94800)
updateCurrDst(94969)
updateCurrDst(95013)
Heartbeat CPU 0 instructions: 58000000 cycles: 19155786 heartbeat IPC: 3.0639 cumulative IPC: 3.02781 (Simulation time: 0 hr 2 min 51 sec) 
updateCurrDst(95383)
updateCurrDst(95550)
updateCurrDst(95590)
updateCurrDst(95636)
updateCurrDst(96018)
updateCurrDst(96048)
updateCurrDst(96103)
updateCurrDst(96287)
updateCurrDst(96319)
updateCurrDst(96464)
updateCurrDst(97016)
updateCurrDst(97090)
updateCurrDst(97169)
updateCurrDst(97269)
updateCurrDst(97374)
Heartbeat CPU 0 instructions: 59000002 cycles: 19482288 heartbeat IPC: 3.06277 cumulative IPC: 3.02839 (Simulation time: 0 hr 2 min 54 sec) 
updateCurrDst(97540)
updateCurrDst(97673)
updateCurrDst(97729)
updateCurrDst(98045)
updateCurrDst(98075)
updateCurrDst(98143)
updateCurrDst(98294)
updateCurrDst(98410)
updateCurrDst(98543)
updateCurrDst(98575)
updateCurrDst(98582)
updateCurrDst(98620)
updateCurrDst(98708)
updateCurrDst(98997)
updateCurrDst(99186)
updateCurrDst(99193)
updateCurrDst(99226)
updateCurrDst(99307)
updateCurrDst(99424)
updateCurrDst(99487)
Heartbeat CPU 0 instructions: 60000001 cycles: 19808921 heartbeat IPC: 3.06154 cumulative IPC: 3.02894 (Simulation time: 0 hr 2 min 57 sec) 
updateCurrDst(99620)
updateCurrDst(99694)
updateCurrDst(99702)
updateCurrDst(99820)
updateCurrDst(100125)
updateCurrDst(100360)
updateCurrDst(100424)
updateCurrDst(100597)
updateCurrDst(100632)
updateCurrDst(100732)
updateCurrDst(100759)
updateCurrDst(100881)
updateCurrDst(100888)
updateCurrDst(100933)
updateCurrDst(100945)
updateCurrDst(100972)
updateCurrDst(100993)
updateCurrDst(101084)
updateCurrDst(101181)
updateCurrDst(101205)
updateCurrDst(101332)
updateCurrDst(101359)
updateCurrDst(101463)
Heartbeat CPU 0 instructions: 61000000 cycles: 20135785 heartbeat IPC: 3.05937 cumulative IPC: 3.02943 (Simulation time: 0 hr 3 min 0 sec) 
updateCurrDst(101656)
updateCurrDst(101682)
updateCurrDst(101687)
updateCurrDst(101712)
updateCurrDst(101847)
updateCurrDst(101911)
updateCurrDst(101935)
updateCurrDst(102061)
updateCurrDst(102080)
updateCurrDst(102227)
updateCurrDst(102282)
updateCurrDst(102586)
updateCurrDst(102603)
updateCurrDst(102632)
updateCurrDst(102735)
updateCurrDst(102888)
updateCurrDst(102976)
updateCurrDst(103070)
updateCurrDst(103472)
updateCurrDst(103511)
Heartbeat CPU 0 instructions: 62000000 cycles: 20462298 heartbeat IPC: 3.06267 cumulative IPC: 3.02996 (Simulation time: 0 hr 3 min 3 sec) 
updateCurrDst(103933)
updateCurrDst(104436)
updateCurrDst(104445)
updateCurrDst(104450)
updateCurrDst(104517)
updateCurrDst(104676)
updateCurrDst(104965)
updateCurrDst(105063)
updateCurrDst(105231)
updateCurrDst(105254)
updateCurrDst(105320)
updateCurrDst(105353)
updateCurrDst(105564)
Heartbeat CPU 0 instructions: 63000003 cycles: 20788686 heartbeat IPC: 3.06385 cumulative IPC: 3.03049 (Simulation time: 0 hr 3 min 6 sec) 
updateCurrDst(105922)
updateCurrDst(106054)
updateCurrDst(106117)
updateCurrDst(106121)
updateCurrDst(106165)
updateCurrDst(106208)
updateCurrDst(106248)
updateCurrDst(106267)
updateCurrDst(106370)
updateCurrDst(106501)
updateCurrDst(106561)
updateCurrDst(106916)
updateCurrDst(106949)
updateCurrDst(106950)
updateCurrDst(106979)
updateCurrDst(107072)
updateCurrDst(107131)
updateCurrDst(107135)
updateCurrDst(107136)
updateCurrDst(107157)
updateCurrDst(107212)
updateCurrDst(107369)
updateCurrDst(107559)
updateCurrDst(107605)
updateCurrDst(107631)
Heartbeat CPU 0 instructions: 64000000 cycles: 21115125 heartbeat IPC: 3.06335 cumulative IPC: 3.031 (Simulation time: 0 hr 3 min 9 sec) 
updateCurrDst(107880)
updateCurrDst(108065)
updateCurrDst(108109)
updateCurrDst(108153)
updateCurrDst(108241)
updateCurrDst(108291)
updateCurrDst(108553)
updateCurrDst(108735)
updateCurrDst(108996)
updateCurrDst(109002)
updateCurrDst(109126)
updateCurrDst(109175)
updateCurrDst(109213)
updateCurrDst(109261)
updateCurrDst(109279)
updateCurrDst(109454)
updateCurrDst(109625)
updateCurrDst(109872)
Heartbeat CPU 0 instructions: 65000003 cycles: 21441530 heartbeat IPC: 3.06369 cumulative IPC: 3.0315 (Simulation time: 0 hr 3 min 12 sec) 
updateCurrDst(109992)
updateCurrDst(110000)
updateCurrDst(110029)
updateCurrDst(110182)
updateCurrDst(110216)
updateCurrDst(110298)
updateCurrDst(110431)
updateCurrDst(110486)
updateCurrDst(110643)
updateCurrDst(110645)
updateCurrDst(110900)
updateCurrDst(110955)
updateCurrDst(110960)
updateCurrDst(110968)
updateCurrDst(111081)
updateCurrDst(111121)
updateCurrDst(111179)
updateCurrDst(111269)
updateCurrDst(111294)
updateCurrDst(111360)
updateCurrDst(111515)
updateCurrDst(111524)
updateCurrDst(111610)
updateCurrDst(111649)
updateCurrDst(111790)
updateCurrDst(111824)
updateCurrDst(111916)
Heartbeat CPU 0 instructions: 66000000 cycles: 21768052 heartbeat IPC: 3.06257 cumulative IPC: 3.03197 (Simulation time: 0 hr 3 min 15 sec) 
updateCurrDst(112066)
updateCurrDst(112219)
updateCurrDst(112264)
updateCurrDst(112308)
updateCurrDst(112343)
updateCurrDst(112363)
updateCurrDst(112537)
updateCurrDst(112568)
updateCurrDst(112616)
updateCurrDst(112804)
updateCurrDst(112925)
updateCurrDst(113271)
updateCurrDst(113357)
updateCurrDst(113446)
updateCurrDst(113568)
updateCurrDst(113701)
updateCurrDst(113791)
updateCurrDst(113803)
updateCurrDst(113805)
Heartbeat CPU 0 instructions: 67000002 cycles: 22094472 heartbeat IPC: 3.06354 cumulative IPC: 3.03243 (Simulation time: 0 hr 3 min 18 sec) 
updateCurrDst(114121)
updateCurrDst(114136)
updateCurrDst(114143)
updateCurrDst(114186)
updateCurrDst(114383)
updateCurrDst(114655)
updateCurrDst(114663)
updateCurrDst(114672)
updateCurrDst(114721)
updateCurrDst(114783)
updateCurrDst(114980)
updateCurrDst(115028)
updateCurrDst(115134)
updateCurrDst(115144)
updateCurrDst(115215)
updateCurrDst(115388)
updateCurrDst(115422)
updateCurrDst(115500)
updateCurrDst(115563)
updateCurrDst(115626)
updateCurrDst(115953)
updateCurrDst(116088)
Heartbeat CPU 0 instructions: 68000000 cycles: 22420980 heartbeat IPC: 3.06271 cumulative IPC: 3.03287 (Simulation time: 0 hr 3 min 21 sec) 
updateCurrDst(116343)
updateCurrDst(116418)
updateCurrDst(116605)
updateCurrDst(116609)
updateCurrDst(116610)
updateCurrDst(116621)
updateCurrDst(116746)
updateCurrDst(116859)
updateCurrDst(116958)
updateCurrDst(117013)
updateCurrDst(117035)
updateCurrDst(117279)
updateCurrDst(117470)
updateCurrDst(117700)
updateCurrDst(117733)
updateCurrDst(117826)
updateCurrDst(117969)
updateCurrDst(118004)
updateCurrDst(118039)
updateCurrDst(118155)
Heartbeat CPU 0 instructions: 69000001 cycles: 22747356 heartbeat IPC: 3.06395 cumulative IPC: 3.03332 (Simulation time: 0 hr 3 min 24 sec) 

Warmup complete CPU 0 instructions: 69000001 cycles: 22747356 (Simulation time: 0 hr 3 min 24 sec) 

updateCurrDst(118343)
updateCurrDst(118446)
updateCurrDst(118468)
updateCurrDst(118543)
updateCurrDst(118608)
updateCurrDst(118616)
updateCurrDst(118816)
updateCurrDst(118839)
updateCurrDst(118895)
updateCurrDst(119060)
updateCurrDst(119147)
updateCurrDst(119215)
updateCurrDst(119335)
updateCurrDst(119405)
updateCurrDst(119514)
updateCurrDst(119891)
updateCurrDst(120028)
updateCurrDst(120075)
updateCurrDst(120210)
updateCurrDst(120252)
Heartbeat CPU 0 instructions: 70000003 cycles: 25900943 heartbeat IPC: 0.3171 cumulative IPC: 0.3171 (Simulation time: 0 hr 3 min 28 sec) 
updateCurrDst(120357)
updateCurrDst(120423)
updateCurrDst(120473)
updateCurrDst(120599)
updateCurrDst(120756)
updateCurrDst(120786)
updateCurrDst(120944)
updateCurrDst(121111)
updateCurrDst(121205)
updateCurrDst(121257)
updateCurrDst(121371)
updateCurrDst(121421)
updateCurrDst(121478)
updateCurrDst(121521)
updateCurrDst(121653)
updateCurrDst(121705)
updateCurrDst(121923)
updateCurrDst(121936)
updateCurrDst(122193)
Heartbeat CPU 0 instructions: 71000002 cycles: 29070300 heartbeat IPC: 0.315521 cumulative IPC: 0.316308 (Simulation time: 0 hr 3 min 32 sec) 
updateCurrDst(122424)
updateCurrDst(122434)
updateCurrDst(122531)
updateCurrDst(122693)
updateCurrDst(122706)
updateCurrDst(122714)
updateCurrDst(123036)
updateCurrDst(123072)
updateCurrDst(123178)
updateCurrDst(123386)
updateCurrDst(123393)
updateCurrDst(123399)
updateCurrDst(123445)
updateCurrDst(123453)
updateCurrDst(123484)
updateCurrDst(123574)
updateCurrDst(123600)
updateCurrDst(123642)
updateCurrDst(123647)
updateCurrDst(123745)
updateCurrDst(124065)
updateCurrDst(124307)
updateCurrDst(124466)
Heartbeat CPU 0 instructions: 72000000 cycles: 32220218 heartbeat IPC: 0.317468 cumulative IPC: 0.316694 (Simulation time: 0 hr 3 min 36 sec) 
updateCurrDst(124522)
updateCurrDst(124565)
updateCurrDst(124697)
updateCurrDst(124747)
updateCurrDst(124797)
updateCurrDst(124807)
updateCurrDst(124875)
updateCurrDst(124900)
updateCurrDst(124922)
updateCurrDst(124929)
updateCurrDst(124982)
updateCurrDst(125021)
updateCurrDst(125044)
updateCurrDst(125091)
updateCurrDst(125101)
updateCurrDst(125273)
updateCurrDst(125521)
updateCurrDst(125590)
updateCurrDst(125798)
updateCurrDst(126056)
updateCurrDst(126071)
updateCurrDst(126128)
updateCurrDst(126279)
updateCurrDst(126288)
updateCurrDst(126401)
Heartbeat CPU 0 instructions: 73000000 cycles: 35374850 heartbeat IPC: 0.316994 cumulative IPC: 0.316769 (Simulation time: 0 hr 3 min 40 sec) 
updateCurrDst(126722)
updateCurrDst(126727)
updateCurrDst(126897)
updateCurrDst(126945)
updateCurrDst(127014)
updateCurrDst(127386)
updateCurrDst(127747)
updateCurrDst(127901)
updateCurrDst(127945)
updateCurrDst(128169)
updateCurrDst(128230)
updateCurrDst(128265)
updateCurrDst(128404)
updateCurrDst(128517)
updateCurrDst(128598)
Heartbeat CPU 0 instructions: 74000003 cycles: 38539363 heartbeat IPC: 0.316005 cumulative IPC: 0.316616 (Simulation time: 0 hr 3 min 44 sec) 
updateCurrDst(128685)
updateCurrDst(128844)
updateCurrDst(128845)
updateCurrDst(128988)
updateCurrDst(129010)
updateCurrDst(129021)
updateCurrDst(129035)
updateCurrDst(129381)
updateCurrDst(129510)
updateCurrDst(129540)
updateCurrDst(129597)
updateCurrDst(129738)
updateCurrDst(130016)
updateCurrDst(130057)
updateCurrDst(130096)
updateCurrDst(130170)
updateCurrDst(130221)
updateCurrDst(130268)
updateCurrDst(130305)
updateCurrDst(130389)
updateCurrDst(130482)
updateCurrDst(130542)
updateCurrDst(130644)
updateCurrDst(130742)
Heartbeat CPU 0 instructions: 75000001 cycles: 41690321 heartbeat IPC: 0.317363 cumulative IPC: 0.31674 (Simulation time: 0 hr 3 min 47 sec) 
updateCurrDst(130888)
updateCurrDst(130909)
updateCurrDst(130912)
updateCurrDst(130963)
updateCurrDst(131074)
updateCurrDst(131080)
updateCurrDst(131086)
updateCurrDst(131113)
updateCurrDst(131150)
updateCurrDst(131200)
updateCurrDst(131379)
updateCurrDst(131416)
updateCurrDst(131509)
updateCurrDst(131563)
updateCurrDst(131669)
updateCurrDst(131701)
updateCurrDst(131890)
updateCurrDst(131998)
updateCurrDst(132128)
updateCurrDst(132168)
updateCurrDst(132236)
updateCurrDst(132320)
updateCurrDst(132352)
updateCurrDst(132380)
updateCurrDst(132392)
updateCurrDst(132437)
updateCurrDst(132440)
updateCurrDst(132486)
updateCurrDst(132528)
updateCurrDst(132553)
updateCurrDst(132605)
updateCurrDst(132722)
updateCurrDst(132724)
updateCurrDst(132732)
updateCurrDst(132733)
updateCurrDst(132769)
updateCurrDst(132770)
Heartbeat CPU 0 instructions: 76000000 cycles: 44851085 heartbeat IPC: 0.316379 cumulative IPC: 0.316689 (Simulation time: 0 hr 3 min 51 sec) 
updateCurrDst(132925)
updateCurrDst(133038)
updateCurrDst(133102)
updateCurrDst(133124)
updateCurrDst(133163)
updateCurrDst(133168)
updateCurrDst(133293)
updateCurrDst(133318)
updateCurrDst(133403)
updateCurrDst(133525)
updateCurrDst(133596)
updateCurrDst(133730)
updateCurrDst(133991)
updateCurrDst(134073)
updateCurrDst(134079)
updateCurrDst(134156)
updateCurrDst(134160)
updateCurrDst(134352)
updateCurrDst(134520)
updateCurrDst(134641)
updateCurrDst(134696)
updateCurrDst(134760)
updateCurrDst(134904)
Heartbeat CPU 0 instructions: 77000000 cycles: 48004636 heartbeat IPC: 0.317103 cumulative IPC: 0.31674 (Simulation time: 0 hr 3 min 54 sec) 
updateCurrDst(134954)
updateCurrDst(134990)
updateCurrDst(135007)
updateCurrDst(135125)
updateCurrDst(135150)
updateCurrDst(135218)
updateCurrDst(135408)
updateCurrDst(135410)
updateCurrDst(135466)
updateCurrDst(135491)
updateCurrDst(135603)
updateCurrDst(135750)
updateCurrDst(135885)
updateCurrDst(135909)
updateCurrDst(136192)
updateCurrDst(136481)
updateCurrDst(136520)
updateCurrDst(136683)
updateCurrDst(136797)
updateCurrDst(136849)
updateCurrDst(136850)
updateCurrDst(136856)
Heartbeat CPU 0 instructions: 78000002 cycles: 51161087 heartbeat IPC: 0.316812 cumulative IPC: 0.316748 (Simulation time: 0 hr 3 min 58 sec) 
updateCurrDst(137129)
updateCurrDst(137259)
updateCurrDst(137404)
updateCurrDst(137417)
updateCurrDst(137523)
updateCurrDst(137548)
updateCurrDst(137604)
updateCurrDst(137758)
updateCurrDst(137859)
updateCurrDst(138021)
updateCurrDst(138068)
updateCurrDst(138099)
updateCurrDst(138207)
updateCurrDst(138225)
updateCurrDst(138281)
updateCurrDst(138350)
updateCurrDst(138414)
updateCurrDst(138492)
updateCurrDst(138569)
updateCurrDst(138675)
updateCurrDst(138770)
updateCurrDst(138771)
Heartbeat CPU 0 instructions: 79000003 cycles: 54317214 heartbeat IPC: 0.316844 cumulative IPC: 0.316758 (Simulation time: 0 hr 4 min 1 sec) 
updateCurrDst(139222)
updateCurrDst(139301)
updateCurrDst(139438)
updateCurrDst(139469)
updateCurrDst(139506)
updateCurrDst(139851)
updateCurrDst(139882)
updateCurrDst(139903)
updateCurrDst(139951)
updateCurrDst(139999)
updateCurrDst(140030)
updateCurrDst(140043)
updateCurrDst(140081)
updateCurrDst(140104)
updateCurrDst(140156)
updateCurrDst(140430)
updateCurrDst(140632)
updateCurrDst(140653)
updateCurrDst(140797)
updateCurrDst(141042)
Heartbeat CPU 0 instructions: 80000003 cycles: 57484845 heartbeat IPC: 0.315693 cumulative IPC: 0.316661 (Simulation time: 0 hr 4 min 5 sec) 
updateCurrDst(141224)
updateCurrDst(141228)
updateCurrDst(141490)
updateCurrDst(141690)
updateCurrDst(141897)
updateCurrDst(142128)
updateCurrDst(142164)
updateCurrDst(142190)
updateCurrDst(142250)
updateCurrDst(142331)
updateCurrDst(142353)
updateCurrDst(142599)
updateCurrDst(142668)
updateCurrDst(142773)
updateCurrDst(143039)
updateCurrDst(143135)
updateCurrDst(143222)
Heartbeat CPU 0 instructions: 81000000 cycles: 60636296 heartbeat IPC: 0.317313 cumulative IPC: 0.316715 (Simulation time: 0 hr 4 min 9 sec) 
updateCurrDst(143370)
updateCurrDst(143439)
updateCurrDst(143526)
updateCurrDst(143565)
updateCurrDst(143673)
updateCurrDst(143683)
updateCurrDst(143953)
updateCurrDst(144003)
updateCurrDst(144007)
updateCurrDst(144024)
updateCurrDst(144125)
updateCurrDst(144150)
updateCurrDst(144437)
updateCurrDst(144531)
updateCurrDst(144551)
updateCurrDst(144689)
updateCurrDst(144735)
updateCurrDst(144763)
updateCurrDst(144895)
updateCurrDst(144984)
updateCurrDst(145184)
updateCurrDst(145201)
updateCurrDst(145216)
updateCurrDst(145231)
updateCurrDst(145299)
Heartbeat CPU 0 instructions: 82000002 cycles: 63789284 heartbeat IPC: 0.31716 cumulative IPC: 0.316749 (Simulation time: 0 hr 4 min 12 sec) 
updateCurrDst(145691)
updateCurrDst(145772)
updateCurrDst(145788)
updateCurrDst(145813)
updateCurrDst(145963)
updateCurrDst(146176)
updateCurrDst(146386)
updateCurrDst(146421)
updateCurrDst(146429)
updateCurrDst(146471)
updateCurrDst(146606)
updateCurrDst(146655)
updateCurrDst(146874)
updateCurrDst(146938)
Heartbeat CPU 0 instructions: 83000001 cycles: 66957380 heartbeat IPC: 0.315647 cumulative IPC: 0.31667 (Simulation time: 0 hr 4 min 15 sec) 
updateCurrDst(147580)
updateCurrDst(147873)
updateCurrDst(148091)
updateCurrDst(148180)
updateCurrDst(148284)
updateCurrDst(148312)
updateCurrDst(148545)
updateCurrDst(148588)
updateCurrDst(148718)
updateCurrDst(148815)
updateCurrDst(148824)
updateCurrDst(148853)
updateCurrDst(148989)
updateCurrDst(149048)
updateCurrDst(149351)
updateCurrDst(149377)
updateCurrDst(149400)
Heartbeat CPU 0 instructions: 84000002 cycles: 70102876 heartbeat IPC: 0.317915 cumulative IPC: 0.316753 (Simulation time: 0 hr 4 min 19 sec) 
updateCurrDst(149479)
updateCurrDst(149571)
updateCurrDst(149896)
updateCurrDst(149990)
updateCurrDst(150103)
updateCurrDst(150118)
updateCurrDst(150298)
updateCurrDst(150387)
updateCurrDst(150424)
updateCurrDst(150445)
updateCurrDst(150655)
updateCurrDst(150682)
updateCurrDst(150871)
updateCurrDst(150973)
updateCurrDst(151134)
updateCurrDst(151178)
updateCurrDst(151200)
updateCurrDst(151217)
updateCurrDst(151332)
updateCurrDst(151434)
Heartbeat CPU 0 instructions: 85000002 cycles: 73270245 heartbeat IPC: 0.315719 cumulative IPC: 0.316688 (Simulation time: 0 hr 4 min 23 sec) 
updateCurrDst(151626)
updateCurrDst(151881)
updateCurrDst(151886)
updateCurrDst(151985)
updateCurrDst(152063)
updateCurrDst(152138)
updateCurrDst(152274)
updateCurrDst(152311)
updateCurrDst(152368)
updateCurrDst(152472)
updateCurrDst(152565)
updateCurrDst(152643)
updateCurrDst(152798)
updateCurrDst(152812)
updateCurrDst(152817)
updateCurrDst(153002)
updateCurrDst(153004)
updateCurrDst(153084)
updateCurrDst(153164)
updateCurrDst(153256)
updateCurrDst(153340)
updateCurrDst(153514)
updateCurrDst(153606)
Heartbeat CPU 0 instructions: 86000002 cycles: 76431670 heartbeat IPC: 0.316313 cumulative IPC: 0.316666 (Simulation time: 0 hr 4 min 26 sec) 
updateCurrDst(153633)
updateCurrDst(153815)
updateCurrDst(153890)
updateCurrDst(153893)
updateCurrDst(153987)
updateCurrDst(154108)
updateCurrDst(154133)
updateCurrDst(154142)
updateCurrDst(154242)
updateCurrDst(154571)
updateCurrDst(154699)
updateCurrDst(154738)
updateCurrDst(154858)
updateCurrDst(154953)
updateCurrDst(155079)
updateCurrDst(155198)
updateCurrDst(155267)
updateCurrDst(155305)
updateCurrDst(155332)
updateCurrDst(155412)
updateCurrDst(155457)
updateCurrDst(155611)
updateCurrDst(155633)
Heartbeat CPU 0 instructions: 87000002 cycles: 79585945 heartbeat IPC: 0.31703 cumulative IPC: 0.316686 (Simulation time: 0 hr 4 min 30 sec) 
updateCurrDst(155802)
updateCurrDst(155804)
updateCurrDst(155868)
updateCurrDst(155900)
updateCurrDst(156000)
updateCurrDst(156014)
updateCurrDst(156194)
updateCurrDst(156201)
updateCurrDst(156242)
updateCurrDst(156271)
updateCurrDst(156290)
updateCurrDst(156325)
updateCurrDst(156494)
updateCurrDst(156572)
updateCurrDst(156714)
updateCurrDst(156752)
updateCurrDst(156929)
updateCurrDst(156931)
updateCurrDst(157195)
updateCurrDst(157211)
updateCurrDst(157394)
updateCurrDst(157401)
updateCurrDst(157418)
updateCurrDst(157562)
updateCurrDst(157582)
updateCurrDst(157675)
updateCurrDst(157725)
updateCurrDst(157783)
Heartbeat CPU 0 instructions: 88000000 cycles: 82746463 heartbeat IPC: 0.316403 cumulative IPC: 0.316671 (Simulation time: 0 hr 4 min 33 sec) 
updateCurrDst(157890)
updateCurrDst(158010)
updateCurrDst(158046)
updateCurrDst(158142)
updateCurrDst(158216)
updateCurrDst(158267)
updateCurrDst(158366)
updateCurrDst(158426)
updateCurrDst(158531)
updateCurrDst(158541)
updateCurrDst(158577)
updateCurrDst(158617)
updateCurrDst(158711)
updateCurrDst(158771)
updateCurrDst(158804)
updateCurrDst(158813)
updateCurrDst(159047)
updateCurrDst(159079)
updateCurrDst(159181)
updateCurrDst(159209)
updateCurrDst(159463)
updateCurrDst(159607)
updateCurrDst(159805)
updateCurrDst(159818)
Heartbeat CPU 0 instructions: 89000002 cycles: 85893041 heartbeat IPC: 0.317806 cumulative IPC: 0.316728 (Simulation time: 0 hr 4 min 37 sec) 
updateCurrDst(159891)
updateCurrDst(160063)
updateCurrDst(160112)
updateCurrDst(160127)
updateCurrDst(160137)
updateCurrDst(160149)
updateCurrDst(160186)
updateCurrDst(160191)
updateCurrDst(160200)
updateCurrDst(160401)
updateCurrDst(160478)
updateCurrDst(160719)
updateCurrDst(160849)
updateCurrDst(160936)
updateCurrDst(160941)
updateCurrDst(161036)
updateCurrDst(161104)
updateCurrDst(161123)
updateCurrDst(161430)
updateCurrDst(161469)
updateCurrDst(161826)
updateCurrDst(161911)
updateCurrDst(161922)
Heartbeat CPU 0 instructions: 90000000 cycles: 89058420 heartbeat IPC: 0.315917 cumulative IPC: 0.316689 (Simulation time: 0 hr 4 min 41 sec) 
updateCurrDst(161997)
updateCurrDst(162007)
updateCurrDst(162274)
updateCurrDst(162298)
updateCurrDst(162388)
updateCurrDst(162730)
updateCurrDst(162969)
updateCurrDst(162994)
updateCurrDst(162995)
updateCurrDst(163235)
updateCurrDst(163272)
updateCurrDst(163365)
updateCurrDst(163444)
updateCurrDst(163707)
updateCurrDst(163851)
updateCurrDst(163894)
updateCurrDst(163942)
Heartbeat CPU 0 instructions: 91000000 cycles: 92215514 heartbeat IPC: 0.316747 cumulative IPC: 0.316692 (Simulation time: 0 hr 4 min 44 sec) 
updateCurrDst(164139)
updateCurrDst(164191)
updateCurrDst(164226)
updateCurrDst(164300)
updateCurrDst(164428)
updateCurrDst(164497)
updateCurrDst(164542)
updateCurrDst(164560)
updateCurrDst(164579)
updateCurrDst(164612)
updateCurrDst(164649)
updateCurrDst(164650)
updateCurrDst(164733)
updateCurrDst(164855)
updateCurrDst(164878)
updateCurrDst(164930)
updateCurrDst(164998)
updateCurrDst(165549)
updateCurrDst(165688)
updateCurrDst(165857)
updateCurrDst(165885)
updateCurrDst(165904)
updateCurrDst(166050)
Heartbeat CPU 0 instructions: 92000003 cycles: 95374447 heartbeat IPC: 0.316564 cumulative IPC: 0.316686 (Simulation time: 0 hr 4 min 48 sec) 
updateCurrDst(166166)
updateCurrDst(166209)
updateCurrDst(166383)
updateCurrDst(166531)
updateCurrDst(166625)
updateCurrDst(166653)
updateCurrDst(166742)
updateCurrDst(166774)
updateCurrDst(167132)
updateCurrDst(167348)
updateCurrDst(167568)
updateCurrDst(167760)
updateCurrDst(167807)
updateCurrDst(167822)
updateCurrDst(167836)
updateCurrDst(167856)
updateCurrDst(167905)
updateCurrDst(167986)
updateCurrDst(168092)
updateCurrDst(168169)
Heartbeat CPU 0 instructions: 93000000 cycles: 98524322 heartbeat IPC: 0.317472 cumulative IPC: 0.316719 (Simulation time: 0 hr 4 min 52 sec) 
updateCurrDst(168215)
updateCurrDst(168336)
updateCurrDst(168450)
updateCurrDst(168470)
updateCurrDst(168491)
updateCurrDst(168603)
updateCurrDst(168633)
updateCurrDst(168793)
updateCurrDst(168813)
updateCurrDst(168828)
updateCurrDst(168912)
updateCurrDst(168961)
updateCurrDst(169042)
updateCurrDst(169073)
updateCurrDst(169096)
updateCurrDst(169204)
updateCurrDst(169240)
updateCurrDst(169277)
updateCurrDst(169339)
updateCurrDst(169352)
updateCurrDst(169492)
updateCurrDst(169504)
updateCurrDst(169585)
updateCurrDst(169725)
updateCurrDst(169796)
updateCurrDst(169874)
updateCurrDst(169921)
updateCurrDst(169961)
updateCurrDst(169997)
updateCurrDst(170022)
updateCurrDst(170065)
updateCurrDst(170195)
updateCurrDst(170221)
Heartbeat CPU 0 instructions: 94000000 cycles: 101690487 heartbeat IPC: 0.315839 cumulative IPC: 0.316684 (Simulation time: 0 hr 4 min 56 sec) 
updateCurrDst(170262)
updateCurrDst(170288)
updateCurrDst(170298)
updateCurrDst(170518)
updateCurrDst(170699)
updateCurrDst(170767)
updateCurrDst(170801)
updateCurrDst(170957)
updateCurrDst(171069)
updateCurrDst(171371)
updateCurrDst(171462)
updateCurrDst(171556)
updateCurrDst(171638)
updateCurrDst(171641)
updateCurrDst(171676)
updateCurrDst(171943)
updateCurrDst(172148)
updateCurrDst(172281)
Heartbeat CPU 0 instructions: 95000003 cycles: 104849596 heartbeat IPC: 0.316546 cumulative IPC: 0.316678 (Simulation time: 0 hr 4 min 59 sec) 
updateCurrDst(172692)
updateCurrDst(172874)
updateCurrDst(172877)
updateCurrDst(172883)
updateCurrDst(173130)
updateCurrDst(173162)
updateCurrDst(173645)
updateCurrDst(174234)
updateCurrDst(174266)
updateCurrDst(174294)
updateCurrDst(174343)
updateCurrDst(174372)
Heartbeat CPU 0 instructions: 96000000 cycles: 108016544 heartbeat IPC: 0.31576 cumulative IPC: 0.316644 (Simulation time: 0 hr 5 min 3 sec) 
updateCurrDst(174399)
updateCurrDst(174451)
updateCurrDst(174480)
updateCurrDst(174640)
updateCurrDst(174708)
updateCurrDst(174908)
updateCurrDst(174939)
updateCurrDst(175014)
updateCurrDst(175068)
updateCurrDst(175131)
updateCurrDst(175201)
updateCurrDst(175255)
updateCurrDst(175347)
updateCurrDst(175402)
updateCurrDst(175496)
updateCurrDst(175664)
updateCurrDst(175785)
updateCurrDst(175867)
updateCurrDst(176111)
updateCurrDst(176222)
updateCurrDst(176277)
updateCurrDst(176307)
Heartbeat CPU 0 instructions: 97000000 cycles: 111190060 heartbeat IPC: 0.315108 cumulative IPC: 0.316589 (Simulation time: 0 hr 5 min 6 sec) 
updateCurrDst(176508)
updateCurrDst(176547)
updateCurrDst(176611)
updateCurrDst(176639)
updateCurrDst(176696)
updateCurrDst(176770)
updateCurrDst(176839)
updateCurrDst(176848)
updateCurrDst(176890)
updateCurrDst(176902)
updateCurrDst(177050)
updateCurrDst(177121)
updateCurrDst(177270)
updateCurrDst(177272)
updateCurrDst(177352)
updateCurrDst(177476)
updateCurrDst(177512)
updateCurrDst(177637)
updateCurrDst(177818)
updateCurrDst(177972)
updateCurrDst(178070)
updateCurrDst(178124)
updateCurrDst(178154)
updateCurrDst(178241)
updateCurrDst(178375)
updateCurrDst(178488)
updateCurrDst(178489)
updateCurrDst(178510)
updateCurrDst(178524)
Heartbeat CPU 0 instructions: 98000000 cycles: 114346004 heartbeat IPC: 0.316862 cumulative IPC: 0.316599 (Simulation time: 0 hr 5 min 10 sec) 
updateCurrDst(178618)
updateCurrDst(178766)
updateCurrDst(178882)
updateCurrDst(178903)
updateCurrDst(178914)
updateCurrDst(178957)
updateCurrDst(179012)
updateCurrDst(179146)
updateCurrDst(179270)
updateCurrDst(179448)
updateCurrDst(179473)
updateCurrDst(179481)
updateCurrDst(179929)
updateCurrDst(180007)
updateCurrDst(180045)
updateCurrDst(180082)
updateCurrDst(180154)
updateCurrDst(180263)
updateCurrDst(180307)
updateCurrDst(180637)
Heartbeat CPU 0 instructions: 99000000 cycles: 117513193 heartbeat IPC: 0.315737 cumulative IPC: 0.31657 (Simulation time: 0 hr 5 min 14 sec) 
updateCurrDst(181085)
updateCurrDst(181114)
updateCurrDst(181206)
updateCurrDst(181638)
updateCurrDst(181770)
updateCurrDst(182041)
updateCurrDst(182042)
updateCurrDst(182133)
updateCurrDst(182154)
updateCurrDst(182169)
updateCurrDst(182251)
updateCurrDst(182675)
Heartbeat CPU 0 instructions: 100000000 cycles: 120676957 heartbeat IPC: 0.316079 cumulative IPC: 0.316554 (Simulation time: 0 hr 5 min 17 sec) 
updateCurrDst(182766)
updateCurrDst(182933)
updateCurrDst(182957)
updateCurrDst(183020)
updateCurrDst(183021)
updateCurrDst(183082)
updateCurrDst(183106)
updateCurrDst(183118)
updateCurrDst(183122)
updateCurrDst(183146)
updateCurrDst(183159)
updateCurrDst(183197)
updateCurrDst(183272)
updateCurrDst(183273)
updateCurrDst(183411)
updateCurrDst(183515)
updateCurrDst(183638)
updateCurrDst(183733)
updateCurrDst(183771)
updateCurrDst(183872)
updateCurrDst(184055)
updateCurrDst(184104)
updateCurrDst(184246)
updateCurrDst(184411)
updateCurrDst(184438)
updateCurrDst(184498)
updateCurrDst(184748)
updateCurrDst(184825)
updateCurrDst(184846)
Heartbeat CPU 0 instructions: 101000003 cycles: 123848673 heartbeat IPC: 0.315288 cumulative IPC: 0.316514 (Simulation time: 0 hr 5 min 21 sec) 
updateCurrDst(185054)
updateCurrDst(185058)
updateCurrDst(185100)
updateCurrDst(185137)
updateCurrDst(185146)
updateCurrDst(185167)
updateCurrDst(185567)
updateCurrDst(185606)
updateCurrDst(185699)
updateCurrDst(185705)
updateCurrDst(185975)
updateCurrDst(186160)
updateCurrDst(186607)
updateCurrDst(186727)
updateCurrDst(186833)
Heartbeat CPU 0 instructions: 102000003 cycles: 127030129 heartbeat IPC: 0.314321 cumulative IPC: 0.316447 (Simulation time: 0 hr 5 min 24 sec) 
updateCurrDst(186942)
updateCurrDst(187041)
updateCurrDst(187366)
updateCurrDst(187681)
updateCurrDst(187889)
updateCurrDst(187901)
updateCurrDst(187916)
updateCurrDst(188135)
updateCurrDst(188308)
updateCurrDst(188422)
updateCurrDst(188436)
updateCurrDst(188455)
updateCurrDst(188473)
updateCurrDst(188587)
updateCurrDst(188637)
updateCurrDst(188744)
updateCurrDst(188786)
updateCurrDst(188970)
updateCurrDst(188984)
Heartbeat CPU 0 instructions: 103000003 cycles: 130188699 heartbeat IPC: 0.316599 cumulative IPC: 0.316452 (Simulation time: 0 hr 5 min 29 sec) 
updateCurrDst(188999)
updateCurrDst(189032)
updateCurrDst(189086)
updateCurrDst(189129)
updateCurrDst(189162)
updateCurrDst(189178)
updateCurrDst(189656)
updateCurrDst(189686)
updateCurrDst(189711)
updateCurrDst(189734)
updateCurrDst(189790)
updateCurrDst(189901)
updateCurrDst(189914)
updateCurrDst(190038)
updateCurrDst(190086)
updateCurrDst(190131)
updateCurrDst(190304)
updateCurrDst(190333)
updateCurrDst(190363)
updateCurrDst(190408)
updateCurrDst(190445)
updateCurrDst(190448)
updateCurrDst(190463)
updateCurrDst(190604)
updateCurrDst(190645)
updateCurrDst(190814)
updateCurrDst(190917)
updateCurrDst(190928)
updateCurrDst(190932)
updateCurrDst(190941)
updateCurrDst(190945)
Heartbeat CPU 0 instructions: 104000001 cycles: 133345396 heartbeat IPC: 0.316786 cumulative IPC: 0.316461 (Simulation time: 0 hr 5 min 32 sec) 
updateCurrDst(191157)
updateCurrDst(191239)
updateCurrDst(191281)
updateCurrDst(191374)
updateCurrDst(191574)
updateCurrDst(191615)
updateCurrDst(191907)
updateCurrDst(192036)
updateCurrDst(192221)
updateCurrDst(192483)
updateCurrDst(192594)
updateCurrDst(192752)
updateCurrDst(192763)
updateCurrDst(192800)
updateCurrDst(192807)
updateCurrDst(192880)
updateCurrDst(192947)
updateCurrDst(193049)
Heartbeat CPU 0 instructions: 105000002 cycles: 136496380 heartbeat IPC: 0.317362 cumulative IPC: 0.316486 (Simulation time: 0 hr 5 min 36 sec) 
updateCurrDst(193148)
updateCurrDst(193231)
updateCurrDst(193313)
updateCurrDst(193517)
updateCurrDst(193852)
updateCurrDst(193893)
updateCurrDst(193905)
updateCurrDst(193967)
updateCurrDst(194210)
updateCurrDst(194249)
updateCurrDst(194292)
updateCurrDst(194378)
updateCurrDst(194412)
updateCurrDst(194413)
updateCurrDst(194637)
updateCurrDst(194898)
updateCurrDst(194904)
updateCurrDst(194932)
updateCurrDst(195077)
updateCurrDst(195121)
updateCurrDst(195148)
updateCurrDst(195228)
Heartbeat CPU 0 instructions: 106000001 cycles: 139657713 heartbeat IPC: 0.316322 cumulative IPC: 0.316482 (Simulation time: 0 hr 5 min 40 sec) 
updateCurrDst(195320)
updateCurrDst(195330)
updateCurrDst(195488)
updateCurrDst(195597)
updateCurrDst(195609)
updateCurrDst(195707)
updateCurrDst(195723)
updateCurrDst(195856)
updateCurrDst(195950)
updateCurrDst(195981)
updateCurrDst(196003)
updateCurrDst(196029)
updateCurrDst(196054)
updateCurrDst(196183)
updateCurrDst(196203)
updateCurrDst(196216)
updateCurrDst(196223)
updateCurrDst(196280)
updateCurrDst(196293)
updateCurrDst(196374)
updateCurrDst(196567)
updateCurrDst(196609)
updateCurrDst(196711)
updateCurrDst(196724)
updateCurrDst(197032)
updateCurrDst(197033)
updateCurrDst(197133)
updateCurrDst(197192)
Heartbeat CPU 0 instructions: 107000001 cycles: 142835247 heartbeat IPC: 0.314709 cumulative IPC: 0.316435 (Simulation time: 0 hr 5 min 44 sec) 
updateCurrDst(197373)
updateCurrDst(197481)
updateCurrDst(197582)
updateCurrDst(197633)
updateCurrDst(197903)
updateCurrDst(197968)
updateCurrDst(197978)
updateCurrDst(197982)
updateCurrDst(198175)
updateCurrDst(198238)
updateCurrDst(198240)
updateCurrDst(198317)
updateCurrDst(198320)
updateCurrDst(198359)
updateCurrDst(198370)
updateCurrDst(198375)
updateCurrDst(198597)
updateCurrDst(198613)
updateCurrDst(198644)
updateCurrDst(198676)
updateCurrDst(198843)
updateCurrDst(198901)
updateCurrDst(198942)
updateCurrDst(199081)
updateCurrDst(199313)
Heartbeat CPU 0 instructions: 108000001 cycles: 145968780 heartbeat IPC: 0.319129 cumulative IPC: 0.316503 (Simulation time: 0 hr 5 min 47 sec) 
updateCurrDst(199414)
updateCurrDst(199520)
updateCurrDst(199574)
updateCurrDst(199666)
updateCurrDst(199671)
updateCurrDst(199854)
updateCurrDst(199871)
updateCurrDst(199909)
updateCurrDst(200109)
updateCurrDst(200169)
updateCurrDst(200391)
updateCurrDst(200396)
updateCurrDst(200402)
updateCurrDst(200502)
updateCurrDst(200515)
updateCurrDst(200628)
updateCurrDst(200713)
updateCurrDst(200772)
updateCurrDst(200877)
updateCurrDst(201219)
updateCurrDst(201249)
updateCurrDst(201305)
updateCurrDst(201336)
updateCurrDst(201471)
Heartbeat CPU 0 instructions: 109000000 cycles: 149116128 heartbeat IPC: 0.317728 cumulative IPC: 0.316534 (Simulation time: 0 hr 5 min 51 sec) 
updateCurrDst(201527)
updateCurrDst(201567)
updateCurrDst(201663)
updateCurrDst(201674)
updateCurrDst(201739)
updateCurrDst(201746)
updateCurrDst(201855)
updateCurrDst(201872)
updateCurrDst(202303)
updateCurrDst(202346)
updateCurrDst(202452)
updateCurrDst(202481)
updateCurrDst(202608)
updateCurrDst(202759)
updateCurrDst(202767)
updateCurrDst(202834)
updateCurrDst(202843)
updateCurrDst(202872)
updateCurrDst(202891)
updateCurrDst(202907)
updateCurrDst(203043)
updateCurrDst(203099)
updateCurrDst(203115)
updateCurrDst(203133)
updateCurrDst(203150)
updateCurrDst(203190)
updateCurrDst(203380)
updateCurrDst(203407)
updateCurrDst(203551)
Heartbeat CPU 0 instructions: 110000000 cycles: 152286117 heartbeat IPC: 0.315459 cumulative IPC: 0.316508 (Simulation time: 0 hr 5 min 55 sec) 
updateCurrDst(203588)
updateCurrDst(203734)
updateCurrDst(203906)
updateCurrDst(203939)
updateCurrDst(204146)
updateCurrDst(204221)
updateCurrDst(204244)
updateCurrDst(204249)
updateCurrDst(204289)
updateCurrDst(204530)
updateCurrDst(204566)
updateCurrDst(204645)
updateCurrDst(205013)
updateCurrDst(205072)
updateCurrDst(205118)
updateCurrDst(205324)
updateCurrDst(205376)
updateCurrDst(205434)
updateCurrDst(205468)
updateCurrDst(205559)
Heartbeat CPU 0 instructions: 111000002 cycles: 155446132 heartbeat IPC: 0.316455 cumulative IPC: 0.316506 (Simulation time: 0 hr 5 min 59 sec) 
updateCurrDst(205820)
updateCurrDst(205832)
updateCurrDst(205883)
updateCurrDst(206030)
updateCurrDst(206072)
updateCurrDst(206169)
updateCurrDst(206210)
updateCurrDst(206349)
updateCurrDst(206356)
updateCurrDst(206453)
updateCurrDst(206689)
updateCurrDst(206757)
updateCurrDst(206868)
updateCurrDst(207006)
updateCurrDst(207057)
updateCurrDst(207248)
updateCurrDst(207630)
updateCurrDst(207743)
Heartbeat CPU 0 instructions: 112000000 cycles: 158628038 heartbeat IPC: 0.314276 cumulative IPC: 0.316454 (Simulation time: 0 hr 6 min 3 sec) 
updateCurrDst(207791)
updateCurrDst(207837)
updateCurrDst(208030)
updateCurrDst(208214)
updateCurrDst(208330)
updateCurrDst(208529)
updateCurrDst(208695)
updateCurrDst(208744)
updateCurrDst(208841)
updateCurrDst(209002)
updateCurrDst(209046)
updateCurrDst(209388)
updateCurrDst(209572)
updateCurrDst(209780)
updateCurrDst(209826)
Heartbeat CPU 0 instructions: 113000001 cycles: 161803582 heartbeat IPC: 0.314907 cumulative IPC: 0.316419 (Simulation time: 0 hr 6 min 6 sec) 
updateCurrDst(209877)
updateCurrDst(209946)
updateCurrDst(210061)
updateCurrDst(210072)
updateCurrDst(210110)
updateCurrDst(210159)
updateCurrDst(210221)
updateCurrDst(210373)
updateCurrDst(210477)
updateCurrDst(210564)
updateCurrDst(210683)
updateCurrDst(210857)
updateCurrDst(210963)
updateCurrDst(211171)
updateCurrDst(211172)
updateCurrDst(211206)
updateCurrDst(211243)
updateCurrDst(211308)
updateCurrDst(211385)
updateCurrDst(211536)
updateCurrDst(211748)
updateCurrDst(211810)
updateCurrDst(211812)
updateCurrDst(211853)
updateCurrDst(211862)
Heartbeat CPU 0 instructions: 114000000 cycles: 164977598 heartbeat IPC: 0.315058 cumulative IPC: 0.316388 (Simulation time: 0 hr 6 min 10 sec) 
updateCurrDst(212019)
updateCurrDst(212256)
updateCurrDst(212492)
updateCurrDst(212600)
updateCurrDst(212820)
updateCurrDst(213003)
updateCurrDst(213051)
updateCurrDst(213161)
updateCurrDst(213319)
updateCurrDst(213429)
updateCurrDst(213570)
updateCurrDst(213674)
updateCurrDst(213756)
updateCurrDst(213836)
updateCurrDst(213845)
Heartbeat CPU 0 instructions: 115000002 cycles: 168155468 heartbeat IPC: 0.314677 cumulative IPC: 0.316351 (Simulation time: 0 hr 6 min 13 sec) 
updateCurrDst(214269)
updateCurrDst(214402)
updateCurrDst(214631)
updateCurrDst(214846)
updateCurrDst(215114)
updateCurrDst(215151)
updateCurrDst(215177)
updateCurrDst(215473)
updateCurrDst(215475)
updateCurrDst(215635)
updateCurrDst(215710)
updateCurrDst(215808)
updateCurrDst(215823)
updateCurrDst(216024)
updateCurrDst(216081)
Heartbeat CPU 0 instructions: 116000002 cycles: 171324470 heartbeat IPC: 0.315557 cumulative IPC: 0.316334 (Simulation time: 0 hr 6 min 17 sec) 
updateCurrDst(216204)
updateCurrDst(216478)
updateCurrDst(216587)
updateCurrDst(216660)
updateCurrDst(216746)
updateCurrDst(216842)
updateCurrDst(216844)
updateCurrDst(216882)
updateCurrDst(216934)
updateCurrDst(217182)
updateCurrDst(217249)
updateCurrDst(217262)
updateCurrDst(217647)
updateCurrDst(217847)
updateCurrDst(217896)
updateCurrDst(217947)
updateCurrDst(217995)
updateCurrDst(218032)
updateCurrDst(218203)
updateCurrDst(218208)
Heartbeat CPU 0 instructions: 117000002 cycles: 174497828 heartbeat IPC: 0.315124 cumulative IPC: 0.316309 (Simulation time: 0 hr 6 min 20 sec) 
updateCurrDst(218261)
updateCurrDst(218304)
updateCurrDst(218377)
updateCurrDst(218389)
updateCurrDst(218417)
updateCurrDst(218457)
updateCurrDst(218525)
updateCurrDst(218705)
updateCurrDst(218791)
updateCurrDst(219019)
updateCurrDst(219033)
updateCurrDst(219160)
updateCurrDst(219179)
updateCurrDst(219193)
updateCurrDst(219229)
updateCurrDst(219292)
updateCurrDst(219311)
updateCurrDst(219395)
updateCurrDst(219508)
updateCurrDst(219676)
updateCurrDst(219765)
updateCurrDst(219812)
updateCurrDst(219830)
updateCurrDst(219848)
updateCurrDst(219952)
updateCurrDst(220080)
Heartbeat CPU 0 instructions: 118000001 cycles: 177685899 heartbeat IPC: 0.313669 cumulative IPC: 0.316254 (Simulation time: 0 hr 6 min 24 sec) 
updateCurrDst(220482)
updateCurrDst(220563)
updateCurrDst(220608)
updateCurrDst(220692)
updateCurrDst(220775)
updateCurrDst(220840)
updateCurrDst(220854)
updateCurrDst(220912)
updateCurrDst(220945)
updateCurrDst(221117)
updateCurrDst(221584)
updateCurrDst(221688)
updateCurrDst(221810)
updateCurrDst(221812)
updateCurrDst(221870)
updateCurrDst(221949)
updateCurrDst(222282)
Heartbeat CPU 0 instructions: 119000000 cycles: 180862677 heartbeat IPC: 0.314784 cumulative IPC: 0.316225 (Simulation time: 0 hr 6 min 28 sec) 
updateCurrDst(222355)
updateCurrDst(222502)
updateCurrDst(222555)
updateCurrDst(222618)
updateCurrDst(222680)
updateCurrDst(222713)
updateCurrDst(222833)
updateCurrDst(222868)
updateCurrDst(223125)
updateCurrDst(223202)
updateCurrDst(223266)
updateCurrDst(223374)
updateCurrDst(223488)
updateCurrDst(223555)
updateCurrDst(223595)
updateCurrDst(223674)
updateCurrDst(223690)
updateCurrDst(223783)
updateCurrDst(224063)
updateCurrDst(224095)
Heartbeat CPU 0 instructions: 120000002 cycles: 184044538 heartbeat IPC: 0.314282 cumulative IPC: 0.316187 (Simulation time: 0 hr 6 min 31 sec) 
updateCurrDst(224459)
updateCurrDst(224544)
updateCurrDst(224708)
updateCurrDst(224793)
updateCurrDst(224872)
updateCurrDst(224927)
updateCurrDst(225074)
updateCurrDst(225134)
updateCurrDst(225151)
updateCurrDst(225163)
updateCurrDst(225266)
updateCurrDst(225268)
updateCurrDst(225270)
updateCurrDst(225570)
updateCurrDst(225659)
updateCurrDst(225863)
updateCurrDst(226004)
updateCurrDst(226221)
updateCurrDst(226267)
updateCurrDst(226308)
Heartbeat CPU 0 instructions: 121000000 cycles: 187214734 heartbeat IPC: 0.315437 cumulative IPC: 0.316172 (Simulation time: 0 hr 6 min 35 sec) 
updateCurrDst(226926)
updateCurrDst(226930)
updateCurrDst(226969)
updateCurrDst(227104)
updateCurrDst(227111)
updateCurrDst(227179)
updateCurrDst(227270)
updateCurrDst(227332)
updateCurrDst(227373)
updateCurrDst(227481)
updateCurrDst(227581)
updateCurrDst(227709)
updateCurrDst(227713)
updateCurrDst(227773)
updateCurrDst(227852)
updateCurrDst(228357)
updateCurrDst(228436)
updateCurrDst(228440)
updateCurrDst(228495)
updateCurrDst(228539)
Heartbeat CPU 0 instructions: 122000000 cycles: 190391167 heartbeat IPC: 0.314819 cumulative IPC: 0.316146 (Simulation time: 0 hr 6 min 38 sec) 
updateCurrDst(228770)
updateCurrDst(228880)
updateCurrDst(228910)
updateCurrDst(228957)
updateCurrDst(228965)
updateCurrDst(229158)
updateCurrDst(229184)
updateCurrDst(229379)
updateCurrDst(229382)
updateCurrDst(229496)
updateCurrDst(229512)
updateCurrDst(229586)
updateCurrDst(229600)
updateCurrDst(229653)
updateCurrDst(229700)
updateCurrDst(229775)
updateCurrDst(229788)
updateCurrDst(229874)
updateCurrDst(230008)
updateCurrDst(230034)
updateCurrDst(230605)
updateCurrDst(230622)
Heartbeat CPU 0 instructions: 123000001 cycles: 193555319 heartbeat IPC: 0.316041 cumulative IPC: 0.316145 (Simulation time: 0 hr 6 min 42 sec) 
updateCurrDst(230902)
updateCurrDst(230963)
updateCurrDst(231030)
updateCurrDst(231073)
updateCurrDst(231129)
updateCurrDst(231136)
updateCurrDst(231187)
updateCurrDst(231232)
updateCurrDst(231236)
updateCurrDst(231326)
updateCurrDst(231328)
updateCurrDst(231362)
updateCurrDst(231447)
updateCurrDst(231522)
updateCurrDst(231615)
updateCurrDst(231689)
updateCurrDst(231739)
updateCurrDst(231756)
updateCurrDst(231804)
updateCurrDst(231840)
updateCurrDst(231889)
updateCurrDst(232329)
updateCurrDst(232348)
updateCurrDst(232418)
updateCurrDst(232472)
updateCurrDst(232589)
Heartbeat CPU 0 instructions: 124000000 cycles: 196702846 heartbeat IPC: 0.317709 cumulative IPC: 0.316173 (Simulation time: 0 hr 6 min 46 sec) 
updateCurrDst(232933)
updateCurrDst(232990)
updateCurrDst(233085)
updateCurrDst(233099)
updateCurrDst(233113)
updateCurrDst(233198)
updateCurrDst(233210)
updateCurrDst(233214)
updateCurrDst(233242)
updateCurrDst(233301)
updateCurrDst(233554)
updateCurrDst(233608)
updateCurrDst(233659)
updateCurrDst(233895)
updateCurrDst(233929)
updateCurrDst(234212)
updateCurrDst(234284)
updateCurrDst(234305)
updateCurrDst(234389)
updateCurrDst(234413)
updateCurrDst(234436)
updateCurrDst(234555)
updateCurrDst(234592)
updateCurrDst(234656)
updateCurrDst(234707)
updateCurrDst(234719)
Heartbeat CPU 0 instructions: 125000002 cycles: 199868147 heartbeat IPC: 0.315926 cumulative IPC: 0.316168 (Simulation time: 0 hr 6 min 50 sec) 
updateCurrDst(234802)
updateCurrDst(235005)
updateCurrDst(235034)
updateCurrDst(235115)
updateCurrDst(235249)
updateCurrDst(235285)
updateCurrDst(235330)
updateCurrDst(235356)
updateCurrDst(235381)
updateCurrDst(235451)
updateCurrDst(235495)
updateCurrDst(235499)
updateCurrDst(235525)
updateCurrDst(235578)
updateCurrDst(235586)
updateCurrDst(235597)
updateCurrDst(235811)
updateCurrDst(235819)
updateCurrDst(235956)
updateCurrDst(235975)
updateCurrDst(235998)
updateCurrDst(236174)
updateCurrDst(236245)
updateCurrDst(236310)
updateCurrDst(236456)
updateCurrDst(236587)
updateCurrDst(236808)
updateCurrDst(236822)
Heartbeat CPU 0 instructions: 126000000 cycles: 203039181 heartbeat IPC: 0.315354 cumulative IPC: 0.316154 (Simulation time: 0 hr 6 min 53 sec) 
updateCurrDst(236920)
updateCurrDst(236951)
updateCurrDst(236985)
updateCurrDst(237031)
updateCurrDst(237277)
updateCurrDst(237315)
updateCurrDst(237492)
updateCurrDst(237517)
updateCurrDst(237604)
updateCurrDst(237961)
updateCurrDst(237962)
updateCurrDst(238050)
updateCurrDst(238065)
updateCurrDst(238112)
updateCurrDst(238195)
updateCurrDst(238422)
updateCurrDst(238539)
updateCurrDst(238597)
updateCurrDst(238674)
updateCurrDst(238678)
updateCurrDst(238738)
Heartbeat CPU 0 instructions: 127000001 cycles: 206205449 heartbeat IPC: 0.31583 cumulative IPC: 0.316148 (Simulation time: 0 hr 6 min 57 sec) 
updateCurrDst(239047)
updateCurrDst(239450)
updateCurrDst(239464)
updateCurrDst(239468)
updateCurrDst(239709)
updateCurrDst(239942)
updateCurrDst(240511)
updateCurrDst(240823)
updateCurrDst(240824)
updateCurrDst(240879)
updateCurrDst(240912)
updateCurrDst(241016)
Heartbeat CPU 0 instructions: 128000001 cycles: 209395267 heartbeat IPC: 0.313498 cumulative IPC: 0.316103 (Simulation time: 0 hr 7 min 0 sec) 
updateCurrDst(241130)
updateCurrDst(241214)
updateCurrDst(241342)
updateCurrDst(241413)
updateCurrDst(241560)
updateCurrDst(241580)
updateCurrDst(241765)
updateCurrDst(241773)
updateCurrDst(241823)
updateCurrDst(241958)
updateCurrDst(241991)
updateCurrDst(242010)
updateCurrDst(242021)
updateCurrDst(242149)
updateCurrDst(242234)
updateCurrDst(242273)
updateCurrDst(242547)
updateCurrDst(242562)
updateCurrDst(242579)
updateCurrDst(242611)
updateCurrDst(242631)
updateCurrDst(242633)
updateCurrDst(242735)
updateCurrDst(242794)
updateCurrDst(242816)
updateCurrDst(242906)
updateCurrDst(242910)
updateCurrDst(242944)
updateCurrDst(243057)
Heartbeat CPU 0 instructions: 129000002 cycles: 212542978 heartbeat IPC: 0.317692 cumulative IPC: 0.31613 (Simulation time: 0 hr 7 min 4 sec) 
updateCurrDst(243119)
updateCurrDst(243409)
updateCurrDst(243416)
updateCurrDst(243485)
updateCurrDst(243497)
updateCurrDst(243643)
updateCurrDst(243653)
updateCurrDst(243657)
updateCurrDst(243704)
updateCurrDst(243797)
updateCurrDst(243932)
updateCurrDst(244009)
updateCurrDst(244217)
updateCurrDst(244260)
updateCurrDst(244376)
updateCurrDst(244449)
updateCurrDst(244555)
updateCurrDst(244639)
updateCurrDst(244791)
updateCurrDst(244905)
updateCurrDst(244982)
updateCurrDst(245158)
Heartbeat CPU 0 instructions: 130000003 cycles: 215704801 heartbeat IPC: 0.316274 cumulative IPC: 0.316132 (Simulation time: 0 hr 7 min 8 sec) 
updateCurrDst(245203)
updateCurrDst(245319)
updateCurrDst(245385)
updateCurrDst(245689)
updateCurrDst(245708)
updateCurrDst(245776)
updateCurrDst(245879)
updateCurrDst(246071)
updateCurrDst(246174)
updateCurrDst(246228)
updateCurrDst(246425)
updateCurrDst(246459)
updateCurrDst(246483)
updateCurrDst(246533)
updateCurrDst(246604)
updateCurrDst(246638)
updateCurrDst(246754)
updateCurrDst(246853)
updateCurrDst(246866)
updateCurrDst(246870)
updateCurrDst(246882)
updateCurrDst(247039)
Heartbeat CPU 0 instructions: 131000000 cycles: 218883358 heartbeat IPC: 0.314607 cumulative IPC: 0.316107 (Simulation time: 0 hr 7 min 11 sec) 
updateCurrDst(247284)
updateCurrDst(247333)
updateCurrDst(247551)
updateCurrDst(247808)
updateCurrDst(247832)
updateCurrDst(247847)
updateCurrDst(247859)
updateCurrDst(247863)
updateCurrDst(248096)
updateCurrDst(248227)
updateCurrDst(248262)
updateCurrDst(248325)
updateCurrDst(248331)
updateCurrDst(248464)
updateCurrDst(248480)
updateCurrDst(248547)
updateCurrDst(248548)
updateCurrDst(248594)
updateCurrDst(248729)
updateCurrDst(248743)
updateCurrDst(248759)
updateCurrDst(248785)
updateCurrDst(248845)
updateCurrDst(248871)
updateCurrDst(248955)
updateCurrDst(248992)
updateCurrDst(249129)
updateCurrDst(249201)
updateCurrDst(249304)
Heartbeat CPU 0 instructions: 132000000 cycles: 222047146 heartbeat IPC: 0.316077 cumulative IPC: 0.316107 (Simulation time: 0 hr 7 min 15 sec) 
updateCurrDst(249617)
updateCurrDst(249760)
updateCurrDst(249939)
updateCurrDst(250093)
updateCurrDst(250122)
updateCurrDst(250320)
updateCurrDst(250483)
updateCurrDst(250484)
updateCurrDst(250710)
updateCurrDst(250791)
updateCurrDst(250827)
updateCurrDst(250843)
updateCurrDst(250921)
updateCurrDst(251145)
updateCurrDst(251306)
updateCurrDst(251317)
Heartbeat CPU 0 instructions: 133000000 cycles: 225178663 heartbeat IPC: 0.319334 cumulative IPC: 0.316157 (Simulation time: 0 hr 7 min 18 sec) 
updateCurrDst(251544)
updateCurrDst(251583)
updateCurrDst(251745)
updateCurrDst(251840)
updateCurrDst(251892)
updateCurrDst(251954)
updateCurrDst(251976)
updateCurrDst(251977)
updateCurrDst(252077)
updateCurrDst(252242)
updateCurrDst(252347)
updateCurrDst(252381)
updateCurrDst(252510)
updateCurrDst(252616)
updateCurrDst(252644)
updateCurrDst(252660)
updateCurrDst(252766)
updateCurrDst(252805)
updateCurrDst(252858)
updateCurrDst(252973)
updateCurrDst(253072)
updateCurrDst(253076)
updateCurrDst(253344)
updateCurrDst(253385)
updateCurrDst(253425)
Heartbeat CPU 0 instructions: 134000000 cycles: 228305538 heartbeat IPC: 0.319808 cumulative IPC: 0.316212 (Simulation time: 0 hr 7 min 22 sec) 
updateCurrDst(253590)
updateCurrDst(253662)
updateCurrDst(253823)
updateCurrDst(253872)
updateCurrDst(254008)
updateCurrDst(254062)
updateCurrDst(254151)
updateCurrDst(254299)
updateCurrDst(254741)
updateCurrDst(254753)
updateCurrDst(254779)
updateCurrDst(254934)
updateCurrDst(254958)
updateCurrDst(255069)
updateCurrDst(255133)
updateCurrDst(255233)
updateCurrDst(255238)
updateCurrDst(255311)
updateCurrDst(255476)
Heartbeat CPU 0 instructions: 135000000 cycles: 231476671 heartbeat IPC: 0.315345 cumulative IPC: 0.316199 (Simulation time: 0 hr 7 min 26 sec) 
updateCurrDst(255609)
updateCurrDst(255668)
updateCurrDst(255736)
updateCurrDst(255832)
updateCurrDst(255867)
updateCurrDst(256003)
updateCurrDst(256121)
updateCurrDst(256248)
updateCurrDst(256688)
updateCurrDst(256734)
updateCurrDst(256756)
updateCurrDst(256846)
updateCurrDst(256921)
updateCurrDst(257202)
updateCurrDst(257296)
updateCurrDst(257420)
updateCurrDst(257440)
updateCurrDst(257498)
Heartbeat CPU 0 instructions: 136000000 cycles: 234621608 heartbeat IPC: 0.317971 cumulative IPC: 0.316225 (Simulation time: 0 hr 7 min 29 sec) 
updateCurrDst(257701)
updateCurrDst(257860)
updateCurrDst(258038)
updateCurrDst(258080)
updateCurrDst(258090)
updateCurrDst(258094)
updateCurrDst(258124)
updateCurrDst(258144)
updateCurrDst(258299)
updateCurrDst(258343)
updateCurrDst(258380)
updateCurrDst(258391)
updateCurrDst(258519)
updateCurrDst(258545)
updateCurrDst(259079)
updateCurrDst(259487)
updateCurrDst(259502)
updateCurrDst(259535)
updateCurrDst(259561)
Heartbeat CPU 0 instructions: 137000000 cycles: 237730951 heartbeat IPC: 0.321611 cumulative IPC: 0.316303 (Simulation time: 0 hr 7 min 32 sec) 
updateCurrDst(259785)
updateCurrDst(260168)
updateCurrDst(260638)
updateCurrDst(260788)
updateCurrDst(260833)
updateCurrDst(260898)
updateCurrDst(260934)
updateCurrDst(261028)
updateCurrDst(261189)
updateCurrDst(261220)
updateCurrDst(261270)
updateCurrDst(261271)
updateCurrDst(261367)
updateCurrDst(261378)
updateCurrDst(261434)
updateCurrDst(261507)
updateCurrDst(261633)
updateCurrDst(261722)
updateCurrDst(261723)
*** Reached end of trace for Core: 0 Repeating trace: ./tracer/pull_u18_k3.xzafter: 138000000
Heartbeat CPU 0 instructions: 138000001 cycles: 240860827 heartbeat IPC: 0.319502 cumulative IPC: 0.316349 (Simulation time: 0 hr 7 min 37 sec) 
Finished CPU 0 instructions: 69000000 cycles: 218113471 cumulative IPC: 0.316349 (Simulation time: 0 hr 7 min 37 sec) 

ChampSim completed all CPUs

Region of Interest Statistics

CPU 0 cumulative IPC: 0.316349 instructions: 69000000 cycles: 218113471

Total ROB STALLS:                   24676940
STLB MISS ROB STALLS:                   1228
L1D  LOAD MISS ROB STALLS:            904251  Translation MISS ROB STALLS:             0
L2C  LOAD MISS ROB STALLS:            559352  Translation MISS ROB STALLS:             0
LLC  LOAD MISS ROB STALLS:             98584  Translation MISS ROB STALLS:             0

ITLB TOTAL     ACCESS:           9331648  HIT:    9331648  MISS:          0  HIT %:        100  MISS %:          0   MPKI: 0
ITLB LOAD TRANSLATION ACCESS:    9331648  HIT:    9331648  MISS:          0  HIT %:        100  MISS %:          0   MPKI: 0
ITLB AVERAGE MISS LATENCY:          -nan cycles
ITLB RQ ACCESS:    10184907	FORWARD:           0	MERGED:       853260	TO_CACHE:    9331647

DTLB TOTAL     ACCESS:          21474185  HIT:   20810033  MISS:     664152  HIT %:    96.9072  MISS %:    3.09279   MPKI: 9.62539
DTLB LOAD TRANSLATION ACCESS:   21474185  HIT:   20810033  MISS:     664152  HIT %:    96.9072  MISS %:    3.09279   MPKI: 9.62539
DTLB AVERAGE MISS LATENCY:       9.41076 cycles
DTLB RQ ACCESS:    29697552	FORWARD:           0	MERGED:      8223367	TO_CACHE:   21474185

STLB TOTAL     ACCESS:            664152  HIT:     662921  MISS:       1231  HIT %:    99.8147  MISS %:   0.185349   MPKI: 0.0178406
STLB LOAD TRANSLATION ACCESS:     664152  HIT:     662921  MISS:       1231  HIT %:    99.8147  MISS %:   0.185349   MPKI: 0.0178406
STLB AVERAGE MISS LATENCY:       221.616 cycles
STLB RQ ACCESS:      664152	FORWARD:           0	MERGED:            0	TO_CACHE:     664152

PSCL5 TOTAL     ACCESS:              1231  HIT:       1231  MISS:          0  HIT %:        100  MISS %:          0   MPKI: 0
PSCL5 LOAD TRANSLATION ACCESS:       1231  HIT:       1231  MISS:          0  HIT %:        100  MISS %:          0   MPKI: 0

PSCL4 TOTAL     ACCESS:              1231  HIT:       1231  MISS:          0  HIT %:        100  MISS %:          0   MPKI: 0
PSCL4 LOAD TRANSLATION ACCESS:       1231  HIT:       1231  MISS:          0  HIT %:        100  MISS %:          0   MPKI: 0

PSCL3 TOTAL     ACCESS:              1231  HIT:       1231  MISS:          0  HIT %:        100  MISS %:          0   MPKI: 0
PSCL3 LOAD TRANSLATION ACCESS:       1231  HIT:       1231  MISS:          0  HIT %:        100  MISS %:          0   MPKI: 0

PSCL2 TOTAL     ACCESS:              1231  HIT:       1230  MISS:          1  HIT %:    99.9188  MISS %:  0.0812348   MPKI: 1.44928e-05
PSCL2 LOAD TRANSLATION ACCESS:       1231  HIT:       1230  MISS:          1  HIT %:    99.9188  MISS %:  0.0812348   MPKI: 1.44928e-05

L1D TOTAL     ACCESS:          29697552  HIT:   28793037  MISS:     904515  HIT %:    96.9542  MISS %:    3.04576   MPKI: 13.1089  USED:     115715  UNUSED:     788800
L1D LOAD      ACCESS:          13789269  HIT:   12884754  MISS:     904515  HIT %:    93.4404  MISS %:    6.55956   MPKI: 13.1089  USED:     115715  UNUSED:     788800
L1D RFO       ACCESS:          15908283  HIT:   15908283  MISS:          0  HIT %:        100  MISS %:          0   MPKI: 0
L1D PTL1 TRANSLATION ACCESS:          0  HIT:          0  MISS:          0  HIT %:       -nan  MISS %:       -nan   MPKI: 0
L1D PTL2 TRANSLATION ACCESS:          0  HIT:          0  MISS:          0  HIT %:       -nan  MISS %:       -nan   MPKI: 0
L1D PTL3 TRANSLATION ACCESS:          0  HIT:          0  MISS:          0  HIT %:       -nan  MISS %:       -nan   MPKI: 0
L1D PTL4 TRANSLATION ACCESS:          0  HIT:          0  MISS:          0  HIT %:       -nan  MISS %:       -nan   MPKI: 0
L1D PTL5 TRANSLATION ACCESS:          0  HIT:          0  MISS:          0  HIT %:       -nan  MISS %:       -nan   MPKI: 0
L1D TOTAL EVICTIONS:             904515  TRANSLATION EVICTIONS:          0  TRANSLATION EVICTING TRANSALTION:          0  TRANSLATION EVICTING LOAD:          0  LOAD EVICTING TRANSALTION:          0  LOAD EVICTING LOAD:      904515
L1D AVERAGE MISS LATENCY:       49.7397 cycles  AVERAGE LOAD MISS LATENCY:       49.7397 cycles  AVERAGE LOAD TRANSLATION MISS LATENCY:          -nan cycles
L1D RQ ACCESS:    17144684	FORWARD:           0	MERGED:      1874302	TO_CACHE:   13789270
L1D WQ ACCESS:    15923136	FORWARD:     1481112	MERGED:        14854	TO_CACHE:   15908282

L1I TOTAL     ACCESS:          10184908  HIT:   10184908  MISS:          0  HIT %:        100  MISS %:          0   MPKI: 0
L1I LOAD      ACCESS:          10184908  HIT:   10184908  MISS:          0  HIT %:        100  MISS %:          0   MPKI: 0
L1I AVERAGE MISS LATENCY:          -nan cycles
L1I RQ ACCESS:    16098024	FORWARD:           0	MERGED:      5913117	TO_CACHE:   10184907

L2C TOTAL     ACCESS:            913486  HIT:     353870  MISS:     559616  HIT %:    38.7384  MISS %:    61.2616   MPKI: 8.11038  USED:     200357  UNUSED:     359259
L2C LOAD      ACCESS:            904515  HIT:     344899  MISS:     559616  HIT %:    38.1308  MISS %:    61.8692   MPKI: 8.11038  USED:     200357  UNUSED:     359259
L2C WRITEBACK ACCESS:              8971  HIT:       8971  MISS:          0  HIT %:        100  MISS %:          0   MPKI: 0
L2C PTL1 TRANSLATION ACCESS:          0  HIT:          0  MISS:          0  HIT %:       -nan  MISS %:       -nan   MPKI: 0
L2C PTL2 TRANSLATION ACCESS:          0  HIT:          0  MISS:          0  HIT %:       -nan  MISS %:       -nan   MPKI: 0
L2C PTL3 TRANSLATION ACCESS:          0  HIT:          0  MISS:          0  HIT %:       -nan  MISS %:       -nan   MPKI: 0
L2C PTL4 TRANSLATION ACCESS:          0  HIT:          0  MISS:          0  HIT %:       -nan  MISS %:       -nan   MPKI: 0
L2C PTL5 TRANSLATION ACCESS:          0  HIT:          0  MISS:          0  HIT %:       -nan  MISS %:       -nan   MPKI: 0
L2C TOTAL EVICTIONS:             559616  TRANSLATION EVICTIONS:          0  TRANSLATION EVICTING TRANSALTION:          0  TRANSLATION EVICTING LOAD:          0  LOAD EVICTING TRANSALTION:          0  LOAD EVICTING LOAD:      559616
L2C AVERAGE MISS LATENCY:       56.1502 cycles  AVERAGE LOAD MISS LATENCY:       56.1502 cycles  AVERAGE LOAD TRANSLATION MISS LATENCY:          -nan cycles
L2C RQ ACCESS:      904516	FORWARD:           0	MERGED:            0	TO_CACHE:     904516
L2C WQ ACCESS:        8971	FORWARD:           0	MERGED:            0	TO_CACHE:       8971

LLC TOTAL     ACCESS:            568574  HIT:     468608  MISS:      99966  HIT %:    82.4181  MISS %:    17.5819   MPKI: 1.44878  USED:          0  UNUSED:          0
LLC LOAD      ACCESS:            559616  HIT:     461029  MISS:      98587  HIT %:    82.3831  MISS %:    17.6169   MPKI: 1.4288  USED:          0  UNUSED:          0
LLC WRITEBACK ACCESS:              8958  HIT:       7579  MISS:       1379  HIT %:    84.6059  MISS %:    15.3941   MPKI: 0.0199855
LLC PTL1 TRANSLATION ACCESS:          0  HIT:          0  MISS:          0  HIT %:       -nan  MISS %:       -nan   MPKI: 0
LLC PTL2 TRANSLATION ACCESS:          0  HIT:          0  MISS:          0  HIT %:       -nan  MISS %:       -nan   MPKI: 0
LLC PTL3 TRANSLATION ACCESS:          0  HIT:          0  MISS:          0  HIT %:       -nan  MISS %:       -nan   MPKI: 0
LLC PTL4 TRANSLATION ACCESS:          0  HIT:          0  MISS:          0  HIT %:       -nan  MISS %:       -nan   MPKI: 0
LLC PTL5 TRANSLATION ACCESS:          0  HIT:          0  MISS:          0  HIT %:       -nan  MISS %:       -nan   MPKI: 0
LLC TOTAL EVICTIONS:                  0  TRANSLATION EVICTIONS:          0  TRANSLATION EVICTING TRANSALTION:          0  TRANSLATION EVICTING LOAD:          0  LOAD EVICTING TRANSALTION:          0  LOAD EVICTING LOAD:           0
LLC AVERAGE MISS LATENCY:       146.391 cycles  AVERAGE LOAD MISS LATENCY:       148.438 cycles  AVERAGE LOAD TRANSLATION MISS LATENCY:          -nan cycles
LLC RQ ACCESS:      559616	FORWARD:           0	MERGED:            0	TO_CACHE:     559616
LLC WQ ACCESS:        8958	FORWARD:           0	MERGED:            0	TO_CACHE:       8958


RAW hits: 12118866
Loads Generated: 29263552
Loads sent to L1D: 17144684
Stores Generated: 15923135
Stores sent to L1D: 15923136
Major fault: 0 Minor fault: 3158
Allocated PAGES: 3158
IRREG DATA L1D ACCESS: 1570680
L2C ACCESSES: 1504633
L2C MISSES: 876387
Total LLC accesses: 1048087
Total Irreg accesses: 876324

DRAM Statistics
 CHANNEL 0
 RQ ROW_BUFFER_HIT:      21270  ROW_BUFFER_MISS:      78548
 DBUS_CONGESTED:          0
 WQ ROW_BUFFER_HIT:         65  ROW_BUFFER_MISS:       2574  FULL:          0

 AVG_CONGESTED_CYCLE: -

CPU 0 Branch Prediction Accuracy: 98.3147% MPKI: 2.06712 Average ROB Occupancy at Mispredict: 17.7625
Branch types
NOT_BRANCH: 60536152 87.7336%
BRANCH_DIRECT_JUMP: 0 0%
BRANCH_INDIRECT: 1003924 1.45496%
BRANCH_CONDITIONAL: 0 0%
BRANCH_DIRECT_CALL: 143526 0.208009%
BRANCH_INDIRECT_CALL: 2869005 4.15798%
BRANCH_RETURN: 3012529 4.36598%
BRANCH_OTHER: 1434502 2.07899%

DRAM PAGES: 1048576
Allocated PAGES: 3158
