
*** ChampSim Multicore Out-of-Order Simulator ***

Warmup Instructions: 69000000
Simulation Instructions: 69000000
Number of CPUs: 1
LLC sets: 2048
LLC ways: 16
Off-chip DRAM Size: 4096 MB Channels: 1 Width: 64-bit Data Rate: 6400 MT/s
CPU 0 runs ./tracer/pull_u18_k3.xz
.xz
BTB has LRU replacement policy
ITLB has LRU replacement policy
DTLB has LRU replacement policy
STLB has LRU replacement policy
L1I has LRU replacement policy
L1D has LRU replacement policy
L2C has LRU replacement policy
LLC has LRU replacement policy
Heartbeat CPU 0 instructions: 1000000 cycles: 350521 heartbeat IPC: 2.8529 cumulative IPC: 2.8529 (Simulation time: 0 hr 0 min 2 sec) 
Heartbeat CPU 0 instructions: 2000003 cycles: 701021 heartbeat IPC: 2.85308 cumulative IPC: 2.85299 (Simulation time: 0 hr 0 min 5 sec) 
Heartbeat CPU 0 instructions: 3000002 cycles: 1051515 heartbeat IPC: 2.85311 cumulative IPC: 2.85303 (Simulation time: 0 hr 0 min 8 sec) 
Heartbeat CPU 0 instructions: 4000001 cycles: 1402012 heartbeat IPC: 2.85309 cumulative IPC: 2.85304 (Simulation time: 0 hr 0 min 11 sec) 
Heartbeat CPU 0 instructions: 5000000 cycles: 1752509 heartbeat IPC: 2.85309 cumulative IPC: 2.85305 (Simulation time: 0 hr 0 min 14 sec) 
Heartbeat CPU 0 instructions: 6000003 cycles: 2103007 heartbeat IPC: 2.85309 cumulative IPC: 2.85306 (Simulation time: 0 hr 0 min 17 sec) 
Heartbeat CPU 0 instructions: 7000002 cycles: 2453506 heartbeat IPC: 2.85307 cumulative IPC: 2.85306 (Simulation time: 0 hr 0 min 20 sec) 
PIN_registerGraphs(random_u18_k3.sg,1)
Graphh Number of Nodes: 262144
Heartbeat CPU 0 instructions: 8000001 cycles: 2802306 heartbeat IPC: 2.86697 cumulative IPC: 2.85479 (Simulation time: 0 hr 0 min 23 sec) 
Heartbeat CPU 0 instructions: 9000001 cycles: 3135640 heartbeat IPC: 2.99999 cumulative IPC: 2.87023 (Simulation time: 0 hr 0 min 24 sec) 
Heartbeat CPU 0 instructions: 10000003 cycles: 3468914 heartbeat IPC: 3.00054 cumulative IPC: 2.88275 (Simulation time: 0 hr 0 min 26 sec) 
Heartbeat CPU 0 instructions: 11000000 cycles: 3802247 heartbeat IPC: 2.99999 cumulative IPC: 2.89303 (Simulation time: 0 hr 0 min 27 sec) 
Heartbeat CPU 0 instructions: 12000000 cycles: 4135581 heartbeat IPC: 2.99999 cumulative IPC: 2.90165 (Simulation time: 0 hr 0 min 29 sec) 
PIN_updateRegBaseBound( 94773131620560, 94773132669136)
updateCurrDst(224)
updateCurrDst(246)
updateCurrDst(302)
updateCurrDst(320)
updateCurrDst(347)
updateCurrDst(367)
updateCurrDst(369)
updateCurrDst(625)
updateCurrDst(1016)
updateCurrDst(1282)
updateCurrDst(1369)
updateCurrDst(1399)
updateCurrDst(1515)
updateCurrDst(1775)
updateCurrDst(1793)
updateCurrDst(1808)
updateCurrDst(1878)
updateCurrDst(1882)
Heartbeat CPU 0 instructions: 13000001 cycles: 4463440 heartbeat IPC: 3.05009 cumulative IPC: 2.91255 (Simulation time: 0 hr 0 min 32 sec) 
updateCurrDst(1952)
updateCurrDst(1955)
updateCurrDst(2133)
updateCurrDst(2147)
updateCurrDst(2176)
updateCurrDst(2306)
updateCurrDst(2577)
updateCurrDst(2640)
updateCurrDst(2739)
updateCurrDst(2771)
updateCurrDst(3116)
updateCurrDst(3283)
updateCurrDst(3299)
updateCurrDst(3451)
updateCurrDst(3707)
updateCurrDst(3771)
updateCurrDst(3821)
updateCurrDst(3824)
Heartbeat CPU 0 instructions: 14000001 cycles: 4790202 heartbeat IPC: 3.06033 cumulative IPC: 2.92263 (Simulation time: 0 hr 0 min 35 sec) 
updateCurrDst(4004)
updateCurrDst(4118)
updateCurrDst(4189)
updateCurrDst(4325)
updateCurrDst(4373)
updateCurrDst(4374)
updateCurrDst(4453)
updateCurrDst(4456)
updateCurrDst(4504)
updateCurrDst(4562)
updateCurrDst(4619)
updateCurrDst(4629)
updateCurrDst(4689)
updateCurrDst(4767)
updateCurrDst(5006)
updateCurrDst(5118)
updateCurrDst(5271)
updateCurrDst(5479)
updateCurrDst(5571)
updateCurrDst(5778)
updateCurrDst(5779)
updateCurrDst(5807)
updateCurrDst(5872)
updateCurrDst(5886)
updateCurrDst(5928)
updateCurrDst(5968)
updateCurrDst(5972)
Heartbeat CPU 0 instructions: 15000001 cycles: 5116806 heartbeat IPC: 3.06181 cumulative IPC: 2.93152 (Simulation time: 0 hr 0 min 38 sec) 
updateCurrDst(6160)
updateCurrDst(6312)
updateCurrDst(6403)
updateCurrDst(6485)
updateCurrDst(6538)
updateCurrDst(6591)
updateCurrDst(6595)
updateCurrDst(6612)
updateCurrDst(6856)
updateCurrDst(6941)
updateCurrDst(6950)
updateCurrDst(6984)
updateCurrDst(7114)
updateCurrDst(7272)
updateCurrDst(7301)
updateCurrDst(7335)
updateCurrDst(7358)
updateCurrDst(7367)
updateCurrDst(7396)
updateCurrDst(7457)
updateCurrDst(7875)
updateCurrDst(8136)
Heartbeat CPU 0 instructions: 16000001 cycles: 5443464 heartbeat IPC: 3.06131 cumulative IPC: 2.93931 (Simulation time: 0 hr 0 min 41 sec) 
updateCurrDst(8165)
updateCurrDst(8202)
updateCurrDst(8489)
updateCurrDst(8596)
updateCurrDst(8995)
updateCurrDst(9090)
updateCurrDst(9199)
updateCurrDst(9487)
updateCurrDst(9584)
updateCurrDst(9655)
updateCurrDst(9840)
updateCurrDst(9936)
updateCurrDst(10080)
Heartbeat CPU 0 instructions: 17000003 cycles: 5770099 heartbeat IPC: 3.06153 cumulative IPC: 2.94622 (Simulation time: 0 hr 0 min 45 sec) 
updateCurrDst(10365)
updateCurrDst(10446)
updateCurrDst(10454)
updateCurrDst(10505)
updateCurrDst(10552)
updateCurrDst(10564)
updateCurrDst(10754)
updateCurrDst(10835)
updateCurrDst(11117)
updateCurrDst(11343)
updateCurrDst(11486)
updateCurrDst(11546)
updateCurrDst(11673)
updateCurrDst(12119)
updateCurrDst(12184)
updateCurrDst(12298)
Heartbeat CPU 0 instructions: 18000003 cycles: 6096769 heartbeat IPC: 3.06119 cumulative IPC: 2.95238 (Simulation time: 0 hr 0 min 48 sec) 
updateCurrDst(12379)
updateCurrDst(12463)
updateCurrDst(12506)
updateCurrDst(12564)
updateCurrDst(12591)
updateCurrDst(12599)
updateCurrDst(12678)
updateCurrDst(12806)
updateCurrDst(12930)
updateCurrDst(13031)
updateCurrDst(13053)
updateCurrDst(13234)
updateCurrDst(13289)
updateCurrDst(13340)
updateCurrDst(13429)
updateCurrDst(13465)
updateCurrDst(13610)
updateCurrDst(13699)
updateCurrDst(13868)
updateCurrDst(14014)
updateCurrDst(14097)
updateCurrDst(14179)
updateCurrDst(14247)
updateCurrDst(14333)
updateCurrDst(14376)
Heartbeat CPU 0 instructions: 19000001 cycles: 6423516 heartbeat IPC: 3.06047 cumulative IPC: 2.95788 (Simulation time: 0 hr 0 min 51 sec) 
updateCurrDst(14769)
updateCurrDst(14795)
updateCurrDst(15321)
updateCurrDst(15435)
updateCurrDst(15481)
updateCurrDst(15495)
updateCurrDst(15544)
updateCurrDst(15693)
updateCurrDst(15876)
updateCurrDst(15906)
updateCurrDst(16041)
updateCurrDst(16100)
updateCurrDst(16324)
updateCurrDst(16447)
Heartbeat CPU 0 instructions: 20000002 cycles: 6749917 heartbeat IPC: 3.06372 cumulative IPC: 2.963 (Simulation time: 0 hr 0 min 54 sec) 
updateCurrDst(16618)
updateCurrDst(16770)
updateCurrDst(16942)
updateCurrDst(17091)
updateCurrDst(17103)
updateCurrDst(17104)
updateCurrDst(17109)
updateCurrDst(17255)
updateCurrDst(17338)
updateCurrDst(17438)
updateCurrDst(17566)
updateCurrDst(17595)
updateCurrDst(17639)
updateCurrDst(17674)
updateCurrDst(17822)
updateCurrDst(17920)
updateCurrDst(18102)
updateCurrDst(18220)
updateCurrDst(18271)
updateCurrDst(18331)
updateCurrDst(18334)
updateCurrDst(18337)
updateCurrDst(18385)
updateCurrDst(18448)
updateCurrDst(18525)
updateCurrDst(18539)
Heartbeat CPU 0 instructions: 21000003 cycles: 7076293 heartbeat IPC: 3.06395 cumulative IPC: 2.96766 (Simulation time: 0 hr 0 min 57 sec) 
updateCurrDst(18586)
updateCurrDst(18651)
updateCurrDst(18699)
updateCurrDst(18748)
updateCurrDst(18945)
updateCurrDst(19027)
updateCurrDst(19040)
updateCurrDst(19373)
updateCurrDst(19724)
updateCurrDst(19747)
updateCurrDst(19768)
updateCurrDst(19796)
updateCurrDst(19999)
updateCurrDst(20098)
updateCurrDst(20251)
updateCurrDst(20374)
updateCurrDst(20438)
updateCurrDst(20580)
Heartbeat CPU 0 instructions: 22000000 cycles: 7402884 heartbeat IPC: 3.06192 cumulative IPC: 2.97181 (Simulation time: 0 hr 1 min 0 sec) 
updateCurrDst(20650)
updateCurrDst(20734)
updateCurrDst(20755)
updateCurrDst(20763)
updateCurrDst(20926)
updateCurrDst(21072)
updateCurrDst(21256)
updateCurrDst(21628)
updateCurrDst(21782)
updateCurrDst(21790)
updateCurrDst(21977)
updateCurrDst(22207)
updateCurrDst(22265)
updateCurrDst(22268)
updateCurrDst(22594)
updateCurrDst(22606)
Heartbeat CPU 0 instructions: 23000000 cycles: 7729530 heartbeat IPC: 3.06142 cumulative IPC: 2.9756 (Simulation time: 0 hr 1 min 4 sec) 
updateCurrDst(22730)
updateCurrDst(22732)
updateCurrDst(22773)
updateCurrDst(22809)
updateCurrDst(22859)
updateCurrDst(22931)
updateCurrDst(23115)
updateCurrDst(23168)
updateCurrDst(23175)
updateCurrDst(23303)
updateCurrDst(23440)
updateCurrDst(23450)
updateCurrDst(23546)
updateCurrDst(23676)
updateCurrDst(23679)
updateCurrDst(23742)
updateCurrDst(23761)
updateCurrDst(24044)
updateCurrDst(24122)
updateCurrDst(24137)
updateCurrDst(24413)
updateCurrDst(24415)
updateCurrDst(24475)
updateCurrDst(24624)
updateCurrDst(24738)
Heartbeat CPU 0 instructions: 24000003 cycles: 8055911 heartbeat IPC: 3.06391 cumulative IPC: 2.97918 (Simulation time: 0 hr 1 min 7 sec) 
updateCurrDst(24766)
updateCurrDst(24809)
updateCurrDst(24821)
updateCurrDst(24934)
updateCurrDst(25110)
updateCurrDst(25138)
updateCurrDst(25159)
updateCurrDst(25198)
updateCurrDst(25263)
updateCurrDst(25311)
updateCurrDst(25396)
updateCurrDst(25417)
updateCurrDst(25452)
updateCurrDst(25494)
updateCurrDst(25501)
updateCurrDst(25713)
updateCurrDst(25728)
updateCurrDst(25803)
updateCurrDst(25817)
updateCurrDst(26007)
updateCurrDst(26037)
updateCurrDst(26038)
updateCurrDst(26146)
updateCurrDst(26189)
updateCurrDst(26408)
updateCurrDst(26418)
updateCurrDst(26547)
updateCurrDst(26552)
updateCurrDst(26750)
updateCurrDst(26837)
Heartbeat CPU 0 instructions: 25000002 cycles: 8382390 heartbeat IPC: 3.06298 cumulative IPC: 2.98244 (Simulation time: 0 hr 1 min 10 sec) 
updateCurrDst(26939)
updateCurrDst(27097)
updateCurrDst(27190)
updateCurrDst(27303)
updateCurrDst(27518)
updateCurrDst(27542)
updateCurrDst(27620)
updateCurrDst(27811)
updateCurrDst(27821)
updateCurrDst(27834)
updateCurrDst(27882)
updateCurrDst(27908)
updateCurrDst(28167)
updateCurrDst(28251)
updateCurrDst(28334)
updateCurrDst(28411)
updateCurrDst(28416)
updateCurrDst(28440)
updateCurrDst(28553)
updateCurrDst(28596)
updateCurrDst(28633)
updateCurrDst(28648)
updateCurrDst(28703)
updateCurrDst(28816)
updateCurrDst(28914)
Heartbeat CPU 0 instructions: 26000001 cycles: 8708811 heartbeat IPC: 3.06353 cumulative IPC: 2.98548 (Simulation time: 0 hr 1 min 13 sec) 
updateCurrDst(29107)
updateCurrDst(29129)
updateCurrDst(29242)
updateCurrDst(29312)
updateCurrDst(29488)
updateCurrDst(29530)
updateCurrDst(29536)
updateCurrDst(29824)
updateCurrDst(29842)
updateCurrDst(30068)
updateCurrDst(30322)
updateCurrDst(30370)
updateCurrDst(30438)
updateCurrDst(30444)
updateCurrDst(30518)
updateCurrDst(30597)
updateCurrDst(30609)
updateCurrDst(30957)
updateCurrDst(30961)
Heartbeat CPU 0 instructions: 27000002 cycles: 9035139 heartbeat IPC: 3.0644 cumulative IPC: 2.98833 (Simulation time: 0 hr 1 min 16 sec) 
updateCurrDst(31046)
updateCurrDst(31269)
updateCurrDst(31301)
updateCurrDst(31307)
updateCurrDst(31329)
updateCurrDst(31383)
updateCurrDst(31418)
updateCurrDst(31419)
updateCurrDst(31492)
updateCurrDst(31511)
updateCurrDst(31753)
updateCurrDst(32338)
updateCurrDst(32469)
updateCurrDst(32540)
updateCurrDst(32559)
updateCurrDst(32566)
updateCurrDst(32581)
updateCurrDst(32701)
updateCurrDst(32742)
updateCurrDst(32866)
Heartbeat CPU 0 instructions: 28000003 cycles: 9361550 heartbeat IPC: 3.06363 cumulative IPC: 2.99096 (Simulation time: 0 hr 1 min 20 sec) 
updateCurrDst(33058)
updateCurrDst(33064)
updateCurrDst(33263)
updateCurrDst(33305)
updateCurrDst(33563)
updateCurrDst(33598)
updateCurrDst(33601)
updateCurrDst(33663)
updateCurrDst(33717)
updateCurrDst(33926)
updateCurrDst(34007)
updateCurrDst(34105)
updateCurrDst(34159)
updateCurrDst(34322)
updateCurrDst(34397)
updateCurrDst(34451)
updateCurrDst(34616)
updateCurrDst(34640)
updateCurrDst(34998)
Heartbeat CPU 0 instructions: 29000001 cycles: 9688181 heartbeat IPC: 3.06155 cumulative IPC: 2.99334 (Simulation time: 0 hr 1 min 23 sec) 
updateCurrDst(35257)
updateCurrDst(35308)
updateCurrDst(35323)
updateCurrDst(35386)
updateCurrDst(35655)
updateCurrDst(35697)
updateCurrDst(35756)
updateCurrDst(36180)
updateCurrDst(36256)
updateCurrDst(36287)
updateCurrDst(36426)
updateCurrDst(36488)
updateCurrDst(36540)
updateCurrDst(36604)
updateCurrDst(36802)
updateCurrDst(36926)
updateCurrDst(36946)
updateCurrDst(37038)
updateCurrDst(37069)
Heartbeat CPU 0 instructions: 30000001 cycles: 10014530 heartbeat IPC: 3.0642 cumulative IPC: 2.99565 (Simulation time: 0 hr 1 min 26 sec) 
updateCurrDst(37274)
updateCurrDst(37372)
updateCurrDst(37415)
updateCurrDst(37497)
updateCurrDst(37516)
updateCurrDst(37588)
updateCurrDst(37711)
updateCurrDst(37766)
updateCurrDst(37986)
updateCurrDst(38081)
updateCurrDst(38116)
updateCurrDst(38120)
updateCurrDst(38558)
updateCurrDst(38944)
updateCurrDst(38993)
Heartbeat CPU 0 instructions: 31000000 cycles: 10341062 heartbeat IPC: 3.06248 cumulative IPC: 2.99776 (Simulation time: 0 hr 1 min 29 sec) 
updateCurrDst(39332)
updateCurrDst(39348)
updateCurrDst(39367)
updateCurrDst(39473)
updateCurrDst(39492)
updateCurrDst(39827)
updateCurrDst(39950)
updateCurrDst(39971)
updateCurrDst(39974)
updateCurrDst(40005)
updateCurrDst(40025)
updateCurrDst(40196)
updateCurrDst(40247)
updateCurrDst(40356)
updateCurrDst(40378)
updateCurrDst(40542)
updateCurrDst(40589)
updateCurrDst(40828)
updateCurrDst(40888)
updateCurrDst(41015)
Heartbeat CPU 0 instructions: 32000003 cycles: 10667410 heartbeat IPC: 3.06422 cumulative IPC: 2.99979 (Simulation time: 0 hr 1 min 32 sec) 
updateCurrDst(41367)
updateCurrDst(41421)
updateCurrDst(41471)
updateCurrDst(41489)
updateCurrDst(41496)
updateCurrDst(41553)
updateCurrDst(41599)
updateCurrDst(41812)
updateCurrDst(41851)
updateCurrDst(41890)
updateCurrDst(42002)
updateCurrDst(42032)
updateCurrDst(42090)
updateCurrDst(42122)
updateCurrDst(42472)
updateCurrDst(42710)
updateCurrDst(42721)
updateCurrDst(42751)
updateCurrDst(42772)
updateCurrDst(42892)
updateCurrDst(42976)
updateCurrDst(42980)
updateCurrDst(43235)
updateCurrDst(43331)
updateCurrDst(43354)
Heartbeat CPU 0 instructions: 33000000 cycles: 10993884 heartbeat IPC: 3.06302 cumulative IPC: 3.00167 (Simulation time: 0 hr 1 min 35 sec) 
updateCurrDst(43544)
updateCurrDst(43550)
updateCurrDst(43586)
updateCurrDst(43637)
updateCurrDst(43736)
updateCurrDst(43778)
updateCurrDst(43796)
updateCurrDst(43865)
updateCurrDst(44023)
updateCurrDst(44071)
updateCurrDst(44164)
updateCurrDst(44549)
updateCurrDst(44759)
updateCurrDst(44952)
updateCurrDst(45034)
updateCurrDst(45215)
updateCurrDst(45242)
updateCurrDst(45404)
updateCurrDst(45452)
Heartbeat CPU 0 instructions: 34000001 cycles: 11320574 heartbeat IPC: 3.06101 cumulative IPC: 3.00338 (Simulation time: 0 hr 1 min 38 sec) 
updateCurrDst(45521)
updateCurrDst(45575)
updateCurrDst(45620)
updateCurrDst(45652)
updateCurrDst(45770)
updateCurrDst(45780)
updateCurrDst(45999)
updateCurrDst(46234)
updateCurrDst(46285)
updateCurrDst(46511)
updateCurrDst(46567)
updateCurrDst(46652)
updateCurrDst(46660)
updateCurrDst(46667)
updateCurrDst(46956)
updateCurrDst(47234)
updateCurrDst(47242)
updateCurrDst(47243)
updateCurrDst(47439)
updateCurrDst(47453)
Heartbeat CPU 0 instructions: 35000000 cycles: 11647140 heartbeat IPC: 3.06217 cumulative IPC: 3.00503 (Simulation time: 0 hr 1 min 41 sec) 
updateCurrDst(47806)
updateCurrDst(47922)
updateCurrDst(47974)
updateCurrDst(48121)
updateCurrDst(48248)
updateCurrDst(48390)
updateCurrDst(48535)
updateCurrDst(48590)
updateCurrDst(48621)
updateCurrDst(48630)
updateCurrDst(48705)
updateCurrDst(48736)
updateCurrDst(48914)
updateCurrDst(48934)
updateCurrDst(48961)
updateCurrDst(49001)
updateCurrDst(49012)
updateCurrDst(49044)
updateCurrDst(49148)
updateCurrDst(49150)
updateCurrDst(49379)
updateCurrDst(49383)
updateCurrDst(49396)
updateCurrDst(49397)
updateCurrDst(49482)
updateCurrDst(49524)
updateCurrDst(49568)
updateCurrDst(49582)
updateCurrDst(49613)
updateCurrDst(49636)
Heartbeat CPU 0 instructions: 36000003 cycles: 11973517 heartbeat IPC: 3.06395 cumulative IPC: 3.00664 (Simulation time: 0 hr 1 min 44 sec) 
updateCurrDst(49672)
updateCurrDst(49683)
updateCurrDst(49771)
updateCurrDst(49810)
updateCurrDst(49837)
updateCurrDst(49838)
updateCurrDst(49935)
updateCurrDst(49938)
updateCurrDst(49981)
updateCurrDst(49992)
updateCurrDst(50111)
updateCurrDst(50211)
updateCurrDst(50272)
updateCurrDst(50470)
updateCurrDst(50542)
updateCurrDst(50555)
updateCurrDst(50780)
updateCurrDst(51067)
updateCurrDst(51089)
updateCurrDst(51254)
updateCurrDst(51375)
updateCurrDst(51386)
updateCurrDst(51422)
updateCurrDst(51513)
updateCurrDst(51521)
updateCurrDst(51547)
Heartbeat CPU 0 instructions: 37000001 cycles: 12300176 heartbeat IPC: 3.06129 cumulative IPC: 3.00809 (Simulation time: 0 hr 1 min 47 sec) 
updateCurrDst(52069)
updateCurrDst(52141)
updateCurrDst(52264)
updateCurrDst(52270)
updateCurrDst(52348)
updateCurrDst(52349)
updateCurrDst(52416)
updateCurrDst(52419)
updateCurrDst(52479)
updateCurrDst(52542)
updateCurrDst(52557)
updateCurrDst(52684)
updateCurrDst(52782)
updateCurrDst(52826)
updateCurrDst(52854)
updateCurrDst(52879)
updateCurrDst(53031)
updateCurrDst(53040)
updateCurrDst(53275)
updateCurrDst(53278)
updateCurrDst(53353)
updateCurrDst(53388)
updateCurrDst(53421)
updateCurrDst(53538)
updateCurrDst(53636)
updateCurrDst(53660)
Heartbeat CPU 0 instructions: 38000000 cycles: 12626568 heartbeat IPC: 3.0638 cumulative IPC: 3.00953 (Simulation time: 0 hr 1 min 51 sec) 
updateCurrDst(53886)
updateCurrDst(54155)
updateCurrDst(54317)
updateCurrDst(54335)
updateCurrDst(54398)
updateCurrDst(54441)
updateCurrDst(54539)
updateCurrDst(54657)
updateCurrDst(54877)
updateCurrDst(54897)
updateCurrDst(55047)
updateCurrDst(55350)
updateCurrDst(55384)
updateCurrDst(55562)
updateCurrDst(55573)
updateCurrDst(55656)
updateCurrDst(55774)
updateCurrDst(55816)
updateCurrDst(55817)
Heartbeat CPU 0 instructions: 39000001 cycles: 12953144 heartbeat IPC: 3.06208 cumulative IPC: 3.01085 (Simulation time: 0 hr 1 min 54 sec) 
updateCurrDst(56040)
updateCurrDst(56281)
updateCurrDst(56296)
updateCurrDst(56333)
updateCurrDst(56382)
updateCurrDst(56389)
updateCurrDst(56583)
updateCurrDst(56773)
updateCurrDst(56792)
updateCurrDst(56832)
updateCurrDst(56969)
updateCurrDst(56998)
updateCurrDst(57129)
updateCurrDst(57137)
updateCurrDst(57240)
updateCurrDst(57311)
updateCurrDst(57396)
updateCurrDst(57524)
updateCurrDst(57666)
updateCurrDst(57772)
updateCurrDst(57846)
updateCurrDst(57857)
updateCurrDst(57935)
Heartbeat CPU 0 instructions: 40000000 cycles: 13279502 heartbeat IPC: 3.06412 cumulative IPC: 3.01216 (Simulation time: 0 hr 1 min 57 sec) 
updateCurrDst(57963)
updateCurrDst(57984)
updateCurrDst(58118)
updateCurrDst(58155)
updateCurrDst(58250)
updateCurrDst(58325)
updateCurrDst(58387)
updateCurrDst(58493)
updateCurrDst(58692)
updateCurrDst(58732)
updateCurrDst(58825)
updateCurrDst(58827)
updateCurrDst(59154)
updateCurrDst(59162)
updateCurrDst(59218)
updateCurrDst(59273)
updateCurrDst(59306)
updateCurrDst(59368)
updateCurrDst(59464)
updateCurrDst(59636)
updateCurrDst(59701)
updateCurrDst(59840)
updateCurrDst(59956)
Heartbeat CPU 0 instructions: 41000001 cycles: 13606044 heartbeat IPC: 3.0624 cumulative IPC: 3.01337 (Simulation time: 0 hr 2 min 0 sec) 
updateCurrDst(60035)
updateCurrDst(60234)
updateCurrDst(60257)
updateCurrDst(60269)
updateCurrDst(60395)
updateCurrDst(60466)
updateCurrDst(60536)
updateCurrDst(60602)
updateCurrDst(60628)
updateCurrDst(60641)
updateCurrDst(60679)
updateCurrDst(60690)
updateCurrDst(60949)
updateCurrDst(60991)
updateCurrDst(61067)
updateCurrDst(61129)
updateCurrDst(61148)
updateCurrDst(61217)
updateCurrDst(61253)
updateCurrDst(61723)
updateCurrDst(61940)
updateCurrDst(61954)
updateCurrDst(61966)
Heartbeat CPU 0 instructions: 42000001 cycles: 13932367 heartbeat IPC: 3.06445 cumulative IPC: 3.01456 (Simulation time: 0 hr 2 min 3 sec) 
updateCurrDst(62174)
updateCurrDst(62255)
updateCurrDst(62431)
updateCurrDst(62493)
updateCurrDst(62550)
updateCurrDst(62583)
updateCurrDst(62584)
updateCurrDst(62593)
updateCurrDst(62666)
updateCurrDst(62717)
updateCurrDst(62811)
updateCurrDst(62866)
updateCurrDst(63128)
updateCurrDst(63162)
updateCurrDst(63243)
updateCurrDst(63371)
updateCurrDst(63515)
updateCurrDst(63631)
updateCurrDst(63643)
updateCurrDst(63714)
updateCurrDst(64064)
updateCurrDst(64080)
updateCurrDst(64086)
Heartbeat CPU 0 instructions: 43000000 cycles: 14258933 heartbeat IPC: 3.06217 cumulative IPC: 3.01565 (Simulation time: 0 hr 2 min 6 sec) 
updateCurrDst(64245)
updateCurrDst(64501)
updateCurrDst(64575)
updateCurrDst(64634)
updateCurrDst(64702)
updateCurrDst(65070)
updateCurrDst(65479)
updateCurrDst(65571)
updateCurrDst(65725)
updateCurrDst(65766)
updateCurrDst(65800)
updateCurrDst(65818)
updateCurrDst(65999)
updateCurrDst(66041)
updateCurrDst(66044)
updateCurrDst(66234)
Heartbeat CPU 0 instructions: 44000000 cycles: 14585677 heartbeat IPC: 3.0605 cumulative IPC: 3.01666 (Simulation time: 0 hr 2 min 9 sec) 
updateCurrDst(66320)
updateCurrDst(66353)
updateCurrDst(66523)
updateCurrDst(66554)
updateCurrDst(66674)
updateCurrDst(66719)
updateCurrDst(66858)
updateCurrDst(67050)
updateCurrDst(67079)
updateCurrDst(67167)
updateCurrDst(67387)
updateCurrDst(67635)
updateCurrDst(67899)
updateCurrDst(67916)
updateCurrDst(67923)
updateCurrDst(68027)
updateCurrDst(68051)
updateCurrDst(68162)
updateCurrDst(68205)
updateCurrDst(68233)
Heartbeat CPU 0 instructions: 45000000 cycles: 14912294 heartbeat IPC: 3.06169 cumulative IPC: 3.01764 (Simulation time: 0 hr 2 min 12 sec) 
updateCurrDst(68369)
updateCurrDst(68454)
updateCurrDst(68684)
updateCurrDst(68762)
updateCurrDst(68919)
updateCurrDst(69099)
updateCurrDst(69174)
updateCurrDst(69230)
updateCurrDst(69291)
updateCurrDst(69312)
updateCurrDst(69361)
updateCurrDst(69383)
updateCurrDst(69423)
updateCurrDst(69433)
updateCurrDst(69675)
updateCurrDst(69703)
updateCurrDst(69794)
updateCurrDst(69883)
updateCurrDst(70129)
updateCurrDst(70199)
updateCurrDst(70223)
updateCurrDst(70230)
updateCurrDst(70352)
updateCurrDst(70382)
Heartbeat CPU 0 instructions: 46000000 cycles: 15238602 heartbeat IPC: 3.06459 cumulative IPC: 3.01865 (Simulation time: 0 hr 2 min 16 sec) 
updateCurrDst(70541)
updateCurrDst(70662)
updateCurrDst(70804)
updateCurrDst(70879)
updateCurrDst(70945)
updateCurrDst(71034)
updateCurrDst(71037)
updateCurrDst(71177)
updateCurrDst(71587)
updateCurrDst(71934)
updateCurrDst(71946)
updateCurrDst(71990)
updateCurrDst(72044)
updateCurrDst(72163)
updateCurrDst(72181)
updateCurrDst(72225)
updateCurrDst(72241)
updateCurrDst(72374)
updateCurrDst(72422)
Heartbeat CPU 0 instructions: 47000002 cycles: 15564789 heartbeat IPC: 3.06573 cumulative IPC: 3.01964 (Simulation time: 0 hr 2 min 19 sec) 
updateCurrDst(72515)
updateCurrDst(72732)
updateCurrDst(72743)
updateCurrDst(72781)
updateCurrDst(73126)
updateCurrDst(73237)
updateCurrDst(73314)
updateCurrDst(73426)
updateCurrDst(73446)
updateCurrDst(73494)
updateCurrDst(73552)
updateCurrDst(73603)
updateCurrDst(73611)
updateCurrDst(73788)
updateCurrDst(73789)
updateCurrDst(73838)
updateCurrDst(73859)
updateCurrDst(73880)
updateCurrDst(73909)
updateCurrDst(73986)
updateCurrDst(74010)
updateCurrDst(74091)
updateCurrDst(74178)
updateCurrDst(74448)
Heartbeat CPU 0 instructions: 48000002 cycles: 15891419 heartbeat IPC: 3.06157 cumulative IPC: 3.0205 (Simulation time: 0 hr 2 min 22 sec) 
updateCurrDst(74646)
updateCurrDst(74761)
updateCurrDst(74803)
updateCurrDst(74812)
updateCurrDst(74892)
updateCurrDst(74943)
updateCurrDst(75181)
updateCurrDst(75242)
updateCurrDst(75328)
updateCurrDst(75366)
updateCurrDst(75466)
updateCurrDst(75508)
updateCurrDst(75592)
updateCurrDst(75629)
updateCurrDst(75636)
updateCurrDst(75665)
updateCurrDst(75757)
updateCurrDst(75824)
updateCurrDst(75862)
updateCurrDst(75872)
updateCurrDst(75982)
updateCurrDst(76000)
updateCurrDst(76085)
updateCurrDst(76144)
updateCurrDst(76151)
updateCurrDst(76365)
updateCurrDst(76514)
updateCurrDst(76565)
Heartbeat CPU 0 instructions: 49000003 cycles: 16217759 heartbeat IPC: 3.06429 cumulative IPC: 3.02138 (Simulation time: 0 hr 2 min 25 sec) 
updateCurrDst(76620)
updateCurrDst(76663)
updateCurrDst(76984)
updateCurrDst(77041)
updateCurrDst(77196)
updateCurrDst(77274)
updateCurrDst(77353)
updateCurrDst(77456)
updateCurrDst(77515)
updateCurrDst(77577)
updateCurrDst(77617)
updateCurrDst(77888)
updateCurrDst(77963)
updateCurrDst(78061)
updateCurrDst(78100)
updateCurrDst(78156)
updateCurrDst(78185)
updateCurrDst(78212)
updateCurrDst(78424)
updateCurrDst(78459)
updateCurrDst(78491)
updateCurrDst(78557)
updateCurrDst(78613)
Heartbeat CPU 0 instructions: 50000000 cycles: 16544301 heartbeat IPC: 3.06238 cumulative IPC: 3.02219 (Simulation time: 0 hr 2 min 28 sec) 
updateCurrDst(79003)
updateCurrDst(79021)
updateCurrDst(79055)
updateCurrDst(79263)
updateCurrDst(79273)
updateCurrDst(79358)
updateCurrDst(79456)
updateCurrDst(79548)
updateCurrDst(79634)
updateCurrDst(79641)
updateCurrDst(79743)
updateCurrDst(79905)
updateCurrDst(80010)
updateCurrDst(80117)
updateCurrDst(80209)
updateCurrDst(80214)
updateCurrDst(80270)
updateCurrDst(80278)
updateCurrDst(80334)
updateCurrDst(80383)
updateCurrDst(80412)
updateCurrDst(80446)
updateCurrDst(80491)
updateCurrDst(80526)
updateCurrDst(80567)
updateCurrDst(80581)
Heartbeat CPU 0 instructions: 51000003 cycles: 16870589 heartbeat IPC: 3.06479 cumulative IPC: 3.02301 (Simulation time: 0 hr 2 min 32 sec) 
updateCurrDst(80818)
updateCurrDst(80971)
updateCurrDst(81033)
updateCurrDst(81034)
updateCurrDst(81289)
updateCurrDst(81309)
updateCurrDst(81499)
updateCurrDst(81617)
updateCurrDst(81638)
updateCurrDst(81750)
updateCurrDst(81797)
updateCurrDst(81812)
updateCurrDst(81919)
updateCurrDst(81980)
updateCurrDst(82026)
updateCurrDst(82070)
updateCurrDst(82098)
updateCurrDst(82108)
updateCurrDst(82312)
updateCurrDst(82514)
updateCurrDst(82712)
updateCurrDst(82730)
updateCurrDst(82763)
updateCurrDst(82771)
Heartbeat CPU 0 instructions: 52000001 cycles: 17197088 heartbeat IPC: 3.06279 cumulative IPC: 3.02377 (Simulation time: 0 hr 2 min 35 sec) 
updateCurrDst(82930)
updateCurrDst(82964)
updateCurrDst(83129)
updateCurrDst(83588)
updateCurrDst(83688)
updateCurrDst(83689)
updateCurrDst(83789)
updateCurrDst(83894)
updateCurrDst(83910)
updateCurrDst(83940)
updateCurrDst(83975)
updateCurrDst(83987)
updateCurrDst(83990)
updateCurrDst(84007)
updateCurrDst(84060)
updateCurrDst(84174)
updateCurrDst(84283)
updateCurrDst(84353)
updateCurrDst(84477)
updateCurrDst(84654)
updateCurrDst(84708)
updateCurrDst(84729)
updateCurrDst(84785)
updateCurrDst(84800)
updateCurrDst(84821)
updateCurrDst(84836)
updateCurrDst(84841)
updateCurrDst(84842)
updateCurrDst(84916)
Heartbeat CPU 0 instructions: 53000003 cycles: 17523657 heartbeat IPC: 3.06215 cumulative IPC: 3.02448 (Simulation time: 0 hr 2 min 38 sec) 
updateCurrDst(85062)
updateCurrDst(85310)
updateCurrDst(85557)
updateCurrDst(85573)
updateCurrDst(85685)
updateCurrDst(85733)
updateCurrDst(85771)
updateCurrDst(86185)
updateCurrDst(86186)
updateCurrDst(86364)
updateCurrDst(86576)
updateCurrDst(86619)
updateCurrDst(86977)
updateCurrDst(87022)
Heartbeat CPU 0 instructions: 54000000 cycles: 17850065 heartbeat IPC: 3.06364 cumulative IPC: 3.0252 (Simulation time: 0 hr 2 min 41 sec) 
updateCurrDst(87078)
updateCurrDst(87081)
updateCurrDst(87252)
updateCurrDst(87406)
updateCurrDst(87501)
updateCurrDst(87525)
updateCurrDst(87526)
updateCurrDst(87616)
updateCurrDst(87732)
updateCurrDst(87744)
updateCurrDst(87773)
updateCurrDst(87882)
updateCurrDst(87958)
updateCurrDst(88036)
updateCurrDst(88239)
updateCurrDst(88606)
updateCurrDst(88967)
Heartbeat CPU 0 instructions: 55000000 cycles: 18176791 heartbeat IPC: 3.06067 cumulative IPC: 3.02584 (Simulation time: 0 hr 2 min 44 sec) 
updateCurrDst(89137)
updateCurrDst(89401)
updateCurrDst(89466)
updateCurrDst(89568)
updateCurrDst(89642)
updateCurrDst(89751)
updateCurrDst(89910)
updateCurrDst(89929)
updateCurrDst(90149)
updateCurrDst(90309)
updateCurrDst(90704)
updateCurrDst(90826)
updateCurrDst(90923)
updateCurrDst(91033)
updateCurrDst(91072)
Heartbeat CPU 0 instructions: 56000000 cycles: 18503441 heartbeat IPC: 3.06138 cumulative IPC: 3.02646 (Simulation time: 0 hr 2 min 47 sec) 
updateCurrDst(91261)
updateCurrDst(91295)
updateCurrDst(91308)
updateCurrDst(92108)
updateCurrDst(92131)
updateCurrDst(92189)
updateCurrDst(92277)
updateCurrDst(92342)
updateCurrDst(92928)
updateCurrDst(93226)
Heartbeat CPU 0 instructions: 57000001 cycles: 18829550 heartbeat IPC: 3.06646 cumulative IPC: 3.02716 (Simulation time: 0 hr 2 min 51 sec) 
updateCurrDst(93267)
updateCurrDst(93345)
updateCurrDst(93395)
updateCurrDst(93450)
updateCurrDst(93586)
updateCurrDst(93603)
updateCurrDst(93652)
updateCurrDst(93805)
updateCurrDst(94276)
updateCurrDst(94312)
updateCurrDst(94393)
updateCurrDst(94476)
updateCurrDst(94527)
updateCurrDst(94556)
updateCurrDst(94610)
updateCurrDst(94692)
updateCurrDst(94770)
updateCurrDst(95286)
Heartbeat CPU 0 instructions: 58000000 cycles: 19155962 heartbeat IPC: 3.06361 cumulative IPC: 3.02778 (Simulation time: 0 hr 2 min 55 sec) 
updateCurrDst(95318)
updateCurrDst(95340)
updateCurrDst(95358)
updateCurrDst(95696)
updateCurrDst(96194)
updateCurrDst(96254)
updateCurrDst(96446)
updateCurrDst(96478)
updateCurrDst(96495)
updateCurrDst(96590)
updateCurrDst(96613)
updateCurrDst(96815)
updateCurrDst(96834)
updateCurrDst(97001)
updateCurrDst(97041)
updateCurrDst(97078)
updateCurrDst(97083)
updateCurrDst(97147)
updateCurrDst(97158)
updateCurrDst(97181)
updateCurrDst(97200)
updateCurrDst(97246)
updateCurrDst(97337)
updateCurrDst(97379)
Heartbeat CPU 0 instructions: 59000002 cycles: 19482524 heartbeat IPC: 3.06221 cumulative IPC: 3.02836 (Simulation time: 0 hr 2 min 59 sec) 
updateCurrDst(97492)
updateCurrDst(97628)
updateCurrDst(97644)
updateCurrDst(97829)
updateCurrDst(97906)
updateCurrDst(97963)
updateCurrDst(98001)
updateCurrDst(98170)
updateCurrDst(98238)
updateCurrDst(98584)
updateCurrDst(98733)
updateCurrDst(99033)
updateCurrDst(99367)
updateCurrDst(99471)
Heartbeat CPU 0 instructions: 60000001 cycles: 19809216 heartbeat IPC: 3.06098 cumulative IPC: 3.02889 (Simulation time: 0 hr 3 min 2 sec) 
updateCurrDst(99561)
updateCurrDst(99627)
updateCurrDst(99724)
updateCurrDst(99747)
updateCurrDst(99755)
updateCurrDst(99759)
updateCurrDst(99919)
updateCurrDst(99923)
updateCurrDst(99972)
updateCurrDst(100033)
updateCurrDst(100077)
updateCurrDst(100125)
updateCurrDst(100298)
updateCurrDst(100509)
updateCurrDst(100640)
updateCurrDst(100905)
updateCurrDst(100996)
updateCurrDst(101267)
updateCurrDst(101346)
updateCurrDst(101351)
updateCurrDst(101405)
Heartbeat CPU 0 instructions: 61000000 cycles: 20136129 heartbeat IPC: 3.05891 cumulative IPC: 3.02938 (Simulation time: 0 hr 3 min 5 sec) 
updateCurrDst(101608)
updateCurrDst(101661)
updateCurrDst(101667)
updateCurrDst(101912)
updateCurrDst(101947)
updateCurrDst(101953)
updateCurrDst(102012)
updateCurrDst(102028)
updateCurrDst(102063)
updateCurrDst(102150)
updateCurrDst(102288)
updateCurrDst(102366)
updateCurrDst(102460)
updateCurrDst(102852)
updateCurrDst(102864)
updateCurrDst(102979)
updateCurrDst(103146)
updateCurrDst(103153)
updateCurrDst(103270)
updateCurrDst(103295)
updateCurrDst(103320)
updateCurrDst(103353)
updateCurrDst(103540)
updateCurrDst(103549)
updateCurrDst(103599)
updateCurrDst(103673)
Heartbeat CPU 0 instructions: 62000000 cycles: 20462694 heartbeat IPC: 3.06218 cumulative IPC: 3.0299 (Simulation time: 0 hr 3 min 9 sec) 
updateCurrDst(103945)
updateCurrDst(103997)
updateCurrDst(104032)
updateCurrDst(104593)
updateCurrDst(104788)
updateCurrDst(104830)
updateCurrDst(104840)
updateCurrDst(104941)
updateCurrDst(105063)
updateCurrDst(105109)
updateCurrDst(105141)
updateCurrDst(105162)
updateCurrDst(105233)
updateCurrDst(105290)
updateCurrDst(105369)
updateCurrDst(105538)
updateCurrDst(105638)
updateCurrDst(105655)
Heartbeat CPU 0 instructions: 63000003 cycles: 20789170 heartbeat IPC: 3.06302 cumulative IPC: 3.03042 (Simulation time: 0 hr 3 min 12 sec) 
updateCurrDst(105916)
updateCurrDst(105921)
updateCurrDst(105924)
updateCurrDst(106051)
updateCurrDst(106236)
updateCurrDst(106335)
updateCurrDst(106350)
updateCurrDst(106550)
updateCurrDst(106693)
updateCurrDst(106712)
updateCurrDst(106731)
updateCurrDst(107022)
updateCurrDst(107164)
updateCurrDst(107330)
updateCurrDst(107474)
updateCurrDst(107517)
updateCurrDst(107567)
updateCurrDst(107595)
updateCurrDst(107631)
updateCurrDst(107847)
Heartbeat CPU 0 instructions: 64000000 cycles: 21115694 heartbeat IPC: 3.06255 cumulative IPC: 3.03092 (Simulation time: 0 hr 3 min 15 sec) 
updateCurrDst(107948)
updateCurrDst(108116)
updateCurrDst(108149)
updateCurrDst(108284)
updateCurrDst(108360)
updateCurrDst(108425)
updateCurrDst(108446)
updateCurrDst(108553)
updateCurrDst(108578)
updateCurrDst(108632)
updateCurrDst(108751)
updateCurrDst(108787)
updateCurrDst(108817)
updateCurrDst(108846)
updateCurrDst(108983)
updateCurrDst(109096)
updateCurrDst(109584)
updateCurrDst(109892)
Heartbeat CPU 0 instructions: 65000003 cycles: 21442169 heartbeat IPC: 3.06303 cumulative IPC: 3.03141 (Simulation time: 0 hr 3 min 19 sec) 
updateCurrDst(110076)
updateCurrDst(110123)
updateCurrDst(110189)
updateCurrDst(110218)
updateCurrDst(110443)
updateCurrDst(110563)
updateCurrDst(110670)
updateCurrDst(110698)
updateCurrDst(110707)
updateCurrDst(110817)
updateCurrDst(111082)
updateCurrDst(111315)
updateCurrDst(111385)
updateCurrDst(111607)
updateCurrDst(111726)
updateCurrDst(111923)
Heartbeat CPU 0 instructions: 66000000 cycles: 21768740 heartbeat IPC: 3.06211 cumulative IPC: 3.03187 (Simulation time: 0 hr 3 min 22 sec) 
updateCurrDst(112039)
updateCurrDst(112078)
updateCurrDst(112212)
updateCurrDst(112414)
updateCurrDst(112514)
updateCurrDst(112544)
updateCurrDst(112610)
updateCurrDst(112642)
updateCurrDst(112819)
updateCurrDst(112844)
updateCurrDst(112982)
updateCurrDst(113081)
updateCurrDst(113103)
updateCurrDst(113240)
updateCurrDst(113263)
updateCurrDst(113287)
updateCurrDst(113312)
updateCurrDst(113376)
updateCurrDst(113460)
updateCurrDst(113540)
updateCurrDst(113571)
updateCurrDst(113656)
updateCurrDst(113816)
updateCurrDst(113863)
updateCurrDst(113976)
Heartbeat CPU 0 instructions: 67000002 cycles: 22095224 heartbeat IPC: 3.06294 cumulative IPC: 3.03233 (Simulation time: 0 hr 3 min 25 sec) 
updateCurrDst(114471)
updateCurrDst(114559)
updateCurrDst(114664)
updateCurrDst(114688)
updateCurrDst(114890)
updateCurrDst(115020)
updateCurrDst(115160)
updateCurrDst(115289)
updateCurrDst(115291)
updateCurrDst(115381)
updateCurrDst(115420)
updateCurrDst(115442)
updateCurrDst(115473)
updateCurrDst(115822)
updateCurrDst(115868)
updateCurrDst(115899)
updateCurrDst(115916)
Heartbeat CPU 0 instructions: 68000000 cycles: 22421769 heartbeat IPC: 3.06236 cumulative IPC: 3.03277 (Simulation time: 0 hr 3 min 28 sec) 
updateCurrDst(116188)
updateCurrDst(116191)
updateCurrDst(116194)
updateCurrDst(116267)
updateCurrDst(116382)
updateCurrDst(116546)
updateCurrDst(116594)
updateCurrDst(116626)
updateCurrDst(116727)
updateCurrDst(116746)
updateCurrDst(117118)
updateCurrDst(117175)
updateCurrDst(117353)
updateCurrDst(117399)
updateCurrDst(117422)
updateCurrDst(117472)
updateCurrDst(117517)
updateCurrDst(117801)
updateCurrDst(117811)
updateCurrDst(117856)
updateCurrDst(117897)
updateCurrDst(117960)
updateCurrDst(117975)
updateCurrDst(117988)
updateCurrDst(118071)
updateCurrDst(118108)
updateCurrDst(118205)
updateCurrDst(118220)
Heartbeat CPU 0 instructions: 69000001 cycles: 22748165 heartbeat IPC: 3.06377 cumulative IPC: 3.03321 (Simulation time: 0 hr 3 min 31 sec) 

Warmup complete CPU 0 instructions: 69000001 cycles: 22748165 (Simulation time: 0 hr 3 min 31 sec) 

updateCurrDst(118260)
updateCurrDst(118326)
updateCurrDst(118340)
updateCurrDst(118420)
updateCurrDst(118557)
updateCurrDst(118650)
updateCurrDst(118717)
updateCurrDst(118844)
updateCurrDst(118906)
updateCurrDst(119031)
updateCurrDst(119172)
updateCurrDst(119216)
updateCurrDst(119244)
updateCurrDst(119373)
updateCurrDst(119410)
updateCurrDst(119468)
updateCurrDst(119739)
updateCurrDst(119760)
updateCurrDst(120017)
updateCurrDst(120149)
updateCurrDst(120284)
Heartbeat CPU 0 instructions: 70000003 cycles: 25853662 heartbeat IPC: 0.32201 cumulative IPC: 0.32201 (Simulation time: 0 hr 3 min 35 sec) 
updateCurrDst(120466)
updateCurrDst(120472)
updateCurrDst(120561)
updateCurrDst(120689)
updateCurrDst(120702)
updateCurrDst(120843)
updateCurrDst(120899)
updateCurrDst(120922)
updateCurrDst(120954)
updateCurrDst(121125)
updateCurrDst(121161)
updateCurrDst(121194)
updateCurrDst(121360)
updateCurrDst(121463)
updateCurrDst(121580)
updateCurrDst(121935)
updateCurrDst(122058)
updateCurrDst(122078)
updateCurrDst(122110)
updateCurrDst(122163)
updateCurrDst(122167)
updateCurrDst(122335)
updateCurrDst(122350)
Heartbeat CPU 0 instructions: 71000002 cycles: 28967353 heartbeat IPC: 0.321162 cumulative IPC: 0.321586 (Simulation time: 0 hr 3 min 39 sec) 
updateCurrDst(122430)
updateCurrDst(122495)
updateCurrDst(122525)
updateCurrDst(122550)
updateCurrDst(122907)
updateCurrDst(123041)
updateCurrDst(123448)
updateCurrDst(123467)
updateCurrDst(123578)
updateCurrDst(123583)
updateCurrDst(123783)
updateCurrDst(123823)
updateCurrDst(123970)
updateCurrDst(124025)
updateCurrDst(124029)
updateCurrDst(124100)
updateCurrDst(124148)
updateCurrDst(124232)
updateCurrDst(124249)
updateCurrDst(124254)
updateCurrDst(124294)
updateCurrDst(124295)
updateCurrDst(124407)
updateCurrDst(124483)
Heartbeat CPU 0 instructions: 72000000 cycles: 32076878 heartbeat IPC: 0.321592 cumulative IPC: 0.321588 (Simulation time: 0 hr 3 min 42 sec) 
updateCurrDst(124654)
updateCurrDst(124741)
updateCurrDst(124767)
updateCurrDst(124851)
updateCurrDst(124861)
updateCurrDst(124884)
updateCurrDst(125142)
updateCurrDst(125193)
updateCurrDst(125316)
updateCurrDst(125610)
updateCurrDst(125697)
updateCurrDst(125756)
updateCurrDst(125950)
updateCurrDst(125956)
updateCurrDst(126000)
updateCurrDst(126122)
updateCurrDst(126157)
updateCurrDst(126215)
updateCurrDst(126399)
updateCurrDst(126496)
Heartbeat CPU 0 instructions: 73000000 cycles: 35182998 heartbeat IPC: 0.321945 cumulative IPC: 0.321677 (Simulation time: 0 hr 3 min 47 sec) 
updateCurrDst(126591)
updateCurrDst(126619)
updateCurrDst(126719)
updateCurrDst(126735)
updateCurrDst(126879)
updateCurrDst(127084)
updateCurrDst(127268)
updateCurrDst(127405)
updateCurrDst(127528)
updateCurrDst(127529)
updateCurrDst(127551)
updateCurrDst(127691)
updateCurrDst(128041)
updateCurrDst(128055)
updateCurrDst(128067)
updateCurrDst(128069)
updateCurrDst(128134)
updateCurrDst(128430)
updateCurrDst(128526)
updateCurrDst(128573)
Heartbeat CPU 0 instructions: 74000003 cycles: 38295329 heartbeat IPC: 0.321304 cumulative IPC: 0.321602 (Simulation time: 0 hr 3 min 50 sec) 
updateCurrDst(128766)
updateCurrDst(128937)
updateCurrDst(128966)
updateCurrDst(129090)
updateCurrDst(129099)
updateCurrDst(129123)
updateCurrDst(129141)
updateCurrDst(129170)
updateCurrDst(129304)
updateCurrDst(129389)
updateCurrDst(129530)
updateCurrDst(129582)
updateCurrDst(129685)
updateCurrDst(129910)
updateCurrDst(129994)
updateCurrDst(130005)
updateCurrDst(130075)
updateCurrDst(130203)
updateCurrDst(130339)
updateCurrDst(130358)
updateCurrDst(130588)
Heartbeat CPU 0 instructions: 75000001 cycles: 41411823 heartbeat IPC: 0.320873 cumulative IPC: 0.32148 (Simulation time: 0 hr 3 min 54 sec) 
updateCurrDst(130934)
updateCurrDst(131030)
updateCurrDst(131077)
updateCurrDst(131181)
updateCurrDst(131399)
updateCurrDst(131550)
updateCurrDst(131708)
updateCurrDst(131736)
updateCurrDst(131831)
updateCurrDst(131860)
updateCurrDst(131982)
updateCurrDst(132038)
updateCurrDst(132257)
updateCurrDst(132266)
updateCurrDst(132299)
updateCurrDst(132558)
updateCurrDst(132572)
updateCurrDst(132581)
updateCurrDst(132679)
updateCurrDst(132715)
updateCurrDst(132730)
Heartbeat CPU 0 instructions: 76000000 cycles: 44520228 heartbeat IPC: 0.321708 cumulative IPC: 0.321513 (Simulation time: 0 hr 3 min 57 sec) 
updateCurrDst(133011)
updateCurrDst(133067)
updateCurrDst(133152)
updateCurrDst(133194)
updateCurrDst(133228)
updateCurrDst(133334)
updateCurrDst(133529)
updateCurrDst(133748)
updateCurrDst(133788)
updateCurrDst(133847)
updateCurrDst(133945)
updateCurrDst(134031)
updateCurrDst(134129)
updateCurrDst(134476)
updateCurrDst(134504)
updateCurrDst(134657)
updateCurrDst(134661)
updateCurrDst(134753)
Heartbeat CPU 0 instructions: 77000000 cycles: 47636562 heartbeat IPC: 0.32089 cumulative IPC: 0.321435 (Simulation time: 0 hr 4 min 1 sec) 
updateCurrDst(134983)
updateCurrDst(135000)
updateCurrDst(135048)
updateCurrDst(135086)
updateCurrDst(135290)
updateCurrDst(135475)
updateCurrDst(135523)
updateCurrDst(135636)
updateCurrDst(135777)
updateCurrDst(135786)
updateCurrDst(135796)
updateCurrDst(135834)
updateCurrDst(136130)
updateCurrDst(136241)
updateCurrDst(136425)
updateCurrDst(136481)
updateCurrDst(136611)
updateCurrDst(136679)
updateCurrDst(136725)
updateCurrDst(136805)
updateCurrDst(136892)
updateCurrDst(136901)
Heartbeat CPU 0 instructions: 78000002 cycles: 50749585 heartbeat IPC: 0.321232 cumulative IPC: 0.321412 (Simulation time: 0 hr 4 min 4 sec) 
updateCurrDst(137066)
updateCurrDst(137379)
updateCurrDst(137408)
updateCurrDst(137450)
updateCurrDst(137604)
updateCurrDst(137658)
updateCurrDst(137830)
updateCurrDst(137859)
updateCurrDst(137864)
updateCurrDst(137911)
updateCurrDst(137918)
updateCurrDst(138021)
updateCurrDst(138132)
updateCurrDst(138402)
updateCurrDst(138714)
updateCurrDst(138979)
updateCurrDst(139023)
Heartbeat CPU 0 instructions: 79000003 cycles: 53860018 heartbeat IPC: 0.321499 cumulative IPC: 0.321421 (Simulation time: 0 hr 4 min 8 sec) 
updateCurrDst(139175)
updateCurrDst(139200)
updateCurrDst(139656)
updateCurrDst(139896)
updateCurrDst(140001)
updateCurrDst(140005)
updateCurrDst(140045)
updateCurrDst(140328)
updateCurrDst(140438)
updateCurrDst(140596)
updateCurrDst(140712)
updateCurrDst(140903)
updateCurrDst(141146)
Heartbeat CPU 0 instructions: 80000003 cycles: 56971507 heartbeat IPC: 0.32139 cumulative IPC: 0.321418 (Simulation time: 0 hr 4 min 11 sec) 
updateCurrDst(141190)
updateCurrDst(141203)
updateCurrDst(141478)
updateCurrDst(141565)
updateCurrDst(141636)
updateCurrDst(141751)
updateCurrDst(141822)
updateCurrDst(142174)
updateCurrDst(142184)
updateCurrDst(142217)
updateCurrDst(142499)
updateCurrDst(142514)
updateCurrDst(142591)
updateCurrDst(142615)
updateCurrDst(142630)
updateCurrDst(142741)
updateCurrDst(142845)
updateCurrDst(142900)
updateCurrDst(142904)
updateCurrDst(142907)
updateCurrDst(142954)
updateCurrDst(143078)
Heartbeat CPU 0 instructions: 81000000 cycles: 60090128 heartbeat IPC: 0.320654 cumulative IPC: 0.321354 (Simulation time: 0 hr 4 min 14 sec) 
updateCurrDst(143566)
updateCurrDst(143569)
updateCurrDst(143669)
updateCurrDst(143767)
updateCurrDst(143802)
updateCurrDst(143851)
updateCurrDst(144167)
updateCurrDst(144216)
updateCurrDst(144286)
updateCurrDst(144604)
updateCurrDst(144778)
updateCurrDst(145054)
Heartbeat CPU 0 instructions: 82000002 cycles: 63200483 heartbeat IPC: 0.321507 cumulative IPC: 0.321366 (Simulation time: 0 hr 4 min 18 sec) 
updateCurrDst(145322)
updateCurrDst(145554)
updateCurrDst(145634)
updateCurrDst(145674)
updateCurrDst(145891)
updateCurrDst(146065)
updateCurrDst(146150)
updateCurrDst(146244)
updateCurrDst(146353)
updateCurrDst(146477)
updateCurrDst(146710)
updateCurrDst(146849)
updateCurrDst(146882)
updateCurrDst(146945)
updateCurrDst(147005)
updateCurrDst(147116)
updateCurrDst(147124)
updateCurrDst(147126)
updateCurrDst(147204)
Heartbeat CPU 0 instructions: 83000001 cycles: 66309753 heartbeat IPC: 0.321619 cumulative IPC: 0.321384 (Simulation time: 0 hr 4 min 21 sec) 
updateCurrDst(147453)
updateCurrDst(147514)
updateCurrDst(147570)
updateCurrDst(147605)
updateCurrDst(147805)
updateCurrDst(147876)
updateCurrDst(147988)
updateCurrDst(148094)
updateCurrDst(148195)
updateCurrDst(148254)
updateCurrDst(148304)
updateCurrDst(148521)
updateCurrDst(148538)
updateCurrDst(148547)
updateCurrDst(148626)
updateCurrDst(148659)
updateCurrDst(148709)
updateCurrDst(148787)
updateCurrDst(148863)
updateCurrDst(148907)
updateCurrDst(149237)
updateCurrDst(149373)
updateCurrDst(149419)
Heartbeat CPU 0 instructions: 84000002 cycles: 69423951 heartbeat IPC: 0.32111 cumulative IPC: 0.321366 (Simulation time: 0 hr 4 min 25 sec) 
updateCurrDst(149460)
updateCurrDst(149483)
updateCurrDst(149565)
updateCurrDst(149610)
updateCurrDst(149715)
updateCurrDst(149720)
updateCurrDst(149740)
updateCurrDst(149768)
updateCurrDst(149787)
updateCurrDst(149863)
updateCurrDst(149883)
updateCurrDst(150304)
updateCurrDst(150695)
updateCurrDst(150753)
updateCurrDst(150851)
updateCurrDst(150921)
updateCurrDst(150955)
updateCurrDst(151018)
updateCurrDst(151433)
Heartbeat CPU 0 instructions: 85000002 cycles: 72538473 heartbeat IPC: 0.321077 cumulative IPC: 0.321348 (Simulation time: 0 hr 4 min 28 sec) 
updateCurrDst(151560)
updateCurrDst(151825)
updateCurrDst(151851)
updateCurrDst(151877)
updateCurrDst(151938)
updateCurrDst(151940)
updateCurrDst(151955)
updateCurrDst(152219)
updateCurrDst(152287)
updateCurrDst(152575)
updateCurrDst(152647)
updateCurrDst(152699)
updateCurrDst(152778)
updateCurrDst(152890)
updateCurrDst(152902)
updateCurrDst(152914)
updateCurrDst(153321)
updateCurrDst(153421)
updateCurrDst(153580)
Heartbeat CPU 0 instructions: 86000002 cycles: 75651084 heartbeat IPC: 0.321274 cumulative IPC: 0.321343 (Simulation time: 0 hr 4 min 32 sec) 
updateCurrDst(153643)
updateCurrDst(153724)
updateCurrDst(153892)
updateCurrDst(154097)
updateCurrDst(154118)
updateCurrDst(154199)
updateCurrDst(154434)
updateCurrDst(154584)
updateCurrDst(154622)
updateCurrDst(154777)
updateCurrDst(154870)
updateCurrDst(154931)
updateCurrDst(154961)
updateCurrDst(154971)
updateCurrDst(155138)
updateCurrDst(155175)
updateCurrDst(155657)
Heartbeat CPU 0 instructions: 87000002 cycles: 78757010 heartbeat IPC: 0.321965 cumulative IPC: 0.321378 (Simulation time: 0 hr 4 min 35 sec) 
updateCurrDst(155770)
updateCurrDst(155916)
updateCurrDst(156056)
updateCurrDst(156101)
updateCurrDst(156237)
updateCurrDst(156371)
updateCurrDst(156388)
updateCurrDst(156447)
updateCurrDst(156499)
updateCurrDst(157057)
updateCurrDst(157224)
updateCurrDst(157298)
updateCurrDst(157314)
updateCurrDst(157497)
updateCurrDst(157501)
updateCurrDst(157642)
updateCurrDst(157681)
Heartbeat CPU 0 instructions: 88000000 cycles: 81870186 heartbeat IPC: 0.321215 cumulative IPC: 0.321369 (Simulation time: 0 hr 4 min 39 sec) 
updateCurrDst(157856)
updateCurrDst(158025)
updateCurrDst(158068)
updateCurrDst(158190)
updateCurrDst(158199)
updateCurrDst(158206)
updateCurrDst(158536)
updateCurrDst(158638)
updateCurrDst(158735)
updateCurrDst(158744)
updateCurrDst(159146)
updateCurrDst(159162)
updateCurrDst(159193)
updateCurrDst(159204)
updateCurrDst(159251)
updateCurrDst(159534)
updateCurrDst(159648)
updateCurrDst(159660)
updateCurrDst(159766)
updateCurrDst(159775)
Heartbeat CPU 0 instructions: 89000002 cycles: 84988161 heartbeat IPC: 0.320722 cumulative IPC: 0.321337 (Simulation time: 0 hr 4 min 42 sec) 
updateCurrDst(159939)
updateCurrDst(159983)
updateCurrDst(159999)
updateCurrDst(160023)
updateCurrDst(160080)
updateCurrDst(160153)
updateCurrDst(160331)
updateCurrDst(160437)
updateCurrDst(160483)
updateCurrDst(160637)
updateCurrDst(160807)
updateCurrDst(160892)
updateCurrDst(160915)
updateCurrDst(160916)
updateCurrDst(160952)
updateCurrDst(161097)
updateCurrDst(161153)
updateCurrDst(161282)
updateCurrDst(161299)
updateCurrDst(161321)
updateCurrDst(161435)
updateCurrDst(161536)
updateCurrDst(161837)
updateCurrDst(161944)
Heartbeat CPU 0 instructions: 90000000 cycles: 88098685 heartbeat IPC: 0.321489 cumulative IPC: 0.321344 (Simulation time: 0 hr 4 min 46 sec) 
updateCurrDst(161953)
updateCurrDst(161964)
updateCurrDst(161980)
updateCurrDst(162011)
updateCurrDst(162152)
updateCurrDst(162231)
updateCurrDst(162290)
updateCurrDst(162313)
updateCurrDst(162365)
updateCurrDst(162433)
updateCurrDst(162521)
updateCurrDst(162531)
updateCurrDst(162718)
updateCurrDst(162763)
updateCurrDst(162867)
updateCurrDst(163348)
updateCurrDst(163430)
updateCurrDst(163471)
updateCurrDst(163542)
updateCurrDst(163827)
updateCurrDst(164002)
Heartbeat CPU 0 instructions: 91000000 cycles: 91206417 heartbeat IPC: 0.321778 cumulative IPC: 0.321364 (Simulation time: 0 hr 4 min 49 sec) 
updateCurrDst(164101)
updateCurrDst(164329)
updateCurrDst(164362)
updateCurrDst(164446)
updateCurrDst(164502)
updateCurrDst(164505)
updateCurrDst(164507)
updateCurrDst(164579)
updateCurrDst(164751)
updateCurrDst(164949)
updateCurrDst(165041)
updateCurrDst(165095)
updateCurrDst(165295)
updateCurrDst(165362)
updateCurrDst(165498)
updateCurrDst(165684)
updateCurrDst(165704)
updateCurrDst(165747)
updateCurrDst(165778)
Heartbeat CPU 0 instructions: 92000003 cycles: 94321597 heartbeat IPC: 0.32101 cumulative IPC: 0.321348 (Simulation time: 0 hr 4 min 52 sec) 
updateCurrDst(166196)
updateCurrDst(166275)
updateCurrDst(166333)
updateCurrDst(166346)
updateCurrDst(166392)
updateCurrDst(166550)
updateCurrDst(166605)
updateCurrDst(166629)
updateCurrDst(166712)
updateCurrDst(166753)
updateCurrDst(166802)
updateCurrDst(166943)
updateCurrDst(167074)
updateCurrDst(167249)
updateCurrDst(167326)
updateCurrDst(167496)
updateCurrDst(167564)
updateCurrDst(167858)
updateCurrDst(167884)
updateCurrDst(167985)
updateCurrDst(167994)
Heartbeat CPU 0 instructions: 93000000 cycles: 97429005 heartbeat IPC: 0.321811 cumulative IPC: 0.321368 (Simulation time: 0 hr 4 min 56 sec) 
updateCurrDst(168445)
updateCurrDst(168533)
updateCurrDst(168680)
updateCurrDst(168889)
updateCurrDst(169634)
updateCurrDst(169653)
updateCurrDst(169861)
updateCurrDst(170088)
updateCurrDst(170096)
updateCurrDst(170152)
updateCurrDst(170241)
Heartbeat CPU 0 instructions: 94000000 cycles: 100537639 heartbeat IPC: 0.321685 cumulative IPC: 0.32138 (Simulation time: 0 hr 4 min 59 sec) 
updateCurrDst(170331)
updateCurrDst(170368)
updateCurrDst(170678)
updateCurrDst(170682)
updateCurrDst(170805)
updateCurrDst(170999)
updateCurrDst(171305)
updateCurrDst(171327)
updateCurrDst(171496)
updateCurrDst(171582)
updateCurrDst(171797)
updateCurrDst(171866)
updateCurrDst(172034)
updateCurrDst(172093)
updateCurrDst(172154)
updateCurrDst(172164)
Heartbeat CPU 0 instructions: 95000003 cycles: 103658295 heartbeat IPC: 0.320446 cumulative IPC: 0.321344 (Simulation time: 0 hr 5 min 3 sec) 
updateCurrDst(172449)
updateCurrDst(172557)
updateCurrDst(172583)
updateCurrDst(172592)
updateCurrDst(172643)
updateCurrDst(172745)
updateCurrDst(172779)
updateCurrDst(172783)
updateCurrDst(172804)
updateCurrDst(172876)
updateCurrDst(173045)
updateCurrDst(173088)
updateCurrDst(173274)
updateCurrDst(173523)
updateCurrDst(173614)
updateCurrDst(173673)
updateCurrDst(174072)
updateCurrDst(174101)
updateCurrDst(174194)
updateCurrDst(174287)
Heartbeat CPU 0 instructions: 96000000 cycles: 106763711 heartbeat IPC: 0.322017 cumulative IPC: 0.321369 (Simulation time: 0 hr 5 min 6 sec) 
updateCurrDst(174666)
updateCurrDst(174740)
updateCurrDst(174794)
updateCurrDst(175071)
updateCurrDst(175138)
updateCurrDst(175226)
updateCurrDst(175265)
updateCurrDst(175277)
updateCurrDst(175401)
updateCurrDst(175436)
updateCurrDst(175500)
updateCurrDst(175520)
updateCurrDst(175618)
updateCurrDst(175652)
updateCurrDst(175852)
updateCurrDst(175898)
updateCurrDst(175938)
updateCurrDst(175970)
updateCurrDst(176002)
updateCurrDst(176025)
updateCurrDst(176032)
updateCurrDst(176150)
updateCurrDst(176205)
updateCurrDst(176301)
updateCurrDst(176351)
Heartbeat CPU 0 instructions: 97000000 cycles: 109867942 heartbeat IPC: 0.322141 cumulative IPC: 0.321397 (Simulation time: 0 hr 5 min 10 sec) 
updateCurrDst(176897)
updateCurrDst(176955)
updateCurrDst(177052)
updateCurrDst(177089)
updateCurrDst(177301)
updateCurrDst(177361)
updateCurrDst(177443)
updateCurrDst(177489)
updateCurrDst(177708)
updateCurrDst(177798)
updateCurrDst(178024)
updateCurrDst(178225)
updateCurrDst(178232)
updateCurrDst(178470)
updateCurrDst(178499)
updateCurrDst(178508)
Heartbeat CPU 0 instructions: 98000000 cycles: 112981585 heartbeat IPC: 0.321167 cumulative IPC: 0.321389 (Simulation time: 0 hr 5 min 13 sec) 
updateCurrDst(178568)
updateCurrDst(178599)
updateCurrDst(178710)
updateCurrDst(178898)
updateCurrDst(178913)
updateCurrDst(179179)
updateCurrDst(179500)
updateCurrDst(179675)
updateCurrDst(179709)
updateCurrDst(179782)
updateCurrDst(179803)
updateCurrDst(179860)
updateCurrDst(179900)
updateCurrDst(179912)
updateCurrDst(179943)
updateCurrDst(180108)
updateCurrDst(180150)
updateCurrDst(180258)
updateCurrDst(180261)
updateCurrDst(180282)
updateCurrDst(180362)
updateCurrDst(180373)
updateCurrDst(180403)
updateCurrDst(180626)
updateCurrDst(180629)
updateCurrDst(180642)
Heartbeat CPU 0 instructions: 99000000 cycles: 116092099 heartbeat IPC: 0.32149 cumulative IPC: 0.321392 (Simulation time: 0 hr 5 min 17 sec) 
updateCurrDst(181102)
updateCurrDst(181388)
updateCurrDst(181524)
updateCurrDst(181640)
updateCurrDst(181684)
updateCurrDst(181778)
updateCurrDst(181875)
updateCurrDst(182173)
updateCurrDst(182236)
updateCurrDst(182274)
updateCurrDst(182310)
updateCurrDst(182316)
updateCurrDst(182352)
updateCurrDst(182562)
updateCurrDst(182581)
updateCurrDst(182585)
updateCurrDst(182599)
updateCurrDst(182605)
updateCurrDst(182627)
Heartbeat CPU 0 instructions: 100000000 cycles: 119210286 heartbeat IPC: 0.320699 cumulative IPC: 0.32137 (Simulation time: 0 hr 5 min 20 sec) 
updateCurrDst(182868)
updateCurrDst(182957)
updateCurrDst(183137)
updateCurrDst(183168)
updateCurrDst(183420)
updateCurrDst(183465)
updateCurrDst(183679)
updateCurrDst(183714)
updateCurrDst(183888)
updateCurrDst(183910)
updateCurrDst(183978)
updateCurrDst(184300)
updateCurrDst(184323)
updateCurrDst(184417)
updateCurrDst(184508)
updateCurrDst(184600)
updateCurrDst(184618)
updateCurrDst(184659)
updateCurrDst(184817)
Heartbeat CPU 0 instructions: 101000003 cycles: 122316214 heartbeat IPC: 0.321966 cumulative IPC: 0.321388 (Simulation time: 0 hr 5 min 24 sec) 
updateCurrDst(185012)
updateCurrDst(185039)
updateCurrDst(185065)
updateCurrDst(185218)
updateCurrDst(185379)
updateCurrDst(185391)
updateCurrDst(185401)
updateCurrDst(185534)
updateCurrDst(185546)
updateCurrDst(185877)
updateCurrDst(185881)
updateCurrDst(185913)
updateCurrDst(185960)
updateCurrDst(186063)
updateCurrDst(186196)
updateCurrDst(186249)
updateCurrDst(186286)
updateCurrDst(186384)
updateCurrDst(186511)
updateCurrDst(186703)
updateCurrDst(186743)
Heartbeat CPU 0 instructions: 102000003 cycles: 125431273 heartbeat IPC: 0.321021 cumulative IPC: 0.321377 (Simulation time: 0 hr 5 min 27 sec) 
updateCurrDst(186963)
updateCurrDst(187038)
updateCurrDst(187397)
updateCurrDst(187622)
updateCurrDst(187712)
updateCurrDst(187871)
updateCurrDst(187942)
updateCurrDst(188344)
updateCurrDst(188392)
updateCurrDst(188550)
updateCurrDst(188557)
updateCurrDst(188573)
updateCurrDst(188589)
updateCurrDst(188622)
updateCurrDst(188656)
updateCurrDst(188757)
updateCurrDst(188783)
updateCurrDst(188801)
Heartbeat CPU 0 instructions: 103000003 cycles: 128543303 heartbeat IPC: 0.321334 cumulative IPC: 0.321376 (Simulation time: 0 hr 5 min 31 sec) 
updateCurrDst(189074)
updateCurrDst(189098)
updateCurrDst(189229)
updateCurrDst(189258)
updateCurrDst(189285)
updateCurrDst(189290)
updateCurrDst(189304)
updateCurrDst(189318)
updateCurrDst(189361)
updateCurrDst(189478)
updateCurrDst(189482)
updateCurrDst(189504)
updateCurrDst(189574)
updateCurrDst(189669)
updateCurrDst(189780)
updateCurrDst(189913)
updateCurrDst(189988)
updateCurrDst(190174)
updateCurrDst(190290)
updateCurrDst(190352)
updateCurrDst(190387)
updateCurrDst(190430)
updateCurrDst(190464)
updateCurrDst(190630)
updateCurrDst(190703)
updateCurrDst(190823)
updateCurrDst(190843)
updateCurrDst(190850)
updateCurrDst(190945)
Heartbeat CPU 0 instructions: 104000001 cycles: 131649492 heartbeat IPC: 0.321937 cumulative IPC: 0.321392 (Simulation time: 0 hr 5 min 35 sec) 
updateCurrDst(191092)
updateCurrDst(191157)
updateCurrDst(191313)
updateCurrDst(191714)
updateCurrDst(191846)
updateCurrDst(191941)
updateCurrDst(192007)
updateCurrDst(192024)
updateCurrDst(192125)
updateCurrDst(192260)
updateCurrDst(192314)
updateCurrDst(192395)
updateCurrDst(192449)
updateCurrDst(192457)
updateCurrDst(192474)
updateCurrDst(192480)
updateCurrDst(192817)
updateCurrDst(193026)
updateCurrDst(193030)
Heartbeat CPU 0 instructions: 105000002 cycles: 134756683 heartbeat IPC: 0.321834 cumulative IPC: 0.321404 (Simulation time: 0 hr 5 min 38 sec) 
updateCurrDst(193270)
updateCurrDst(193293)
updateCurrDst(193371)
updateCurrDst(193415)
updateCurrDst(193536)
updateCurrDst(193599)
updateCurrDst(193679)
updateCurrDst(193731)
updateCurrDst(193751)
updateCurrDst(193771)
updateCurrDst(193792)
updateCurrDst(193799)
updateCurrDst(193843)
updateCurrDst(193881)
updateCurrDst(193910)
updateCurrDst(194146)
updateCurrDst(194267)
updateCurrDst(194313)
updateCurrDst(194400)
updateCurrDst(194662)
updateCurrDst(194696)
updateCurrDst(194807)
updateCurrDst(194814)
updateCurrDst(195052)
updateCurrDst(195072)
updateCurrDst(195087)
updateCurrDst(195215)
Heartbeat CPU 0 instructions: 106000001 cycles: 137875284 heartbeat IPC: 0.320656 cumulative IPC: 0.321384 (Simulation time: 0 hr 5 min 42 sec) 
updateCurrDst(195257)
updateCurrDst(195353)
updateCurrDst(195380)
updateCurrDst(195405)
updateCurrDst(195419)
updateCurrDst(195556)
updateCurrDst(195913)
updateCurrDst(195939)
updateCurrDst(196017)
updateCurrDst(196100)
updateCurrDst(196308)
updateCurrDst(196382)
updateCurrDst(196407)
updateCurrDst(196512)
updateCurrDst(196612)
updateCurrDst(196635)
updateCurrDst(196915)
updateCurrDst(196974)
updateCurrDst(196981)
updateCurrDst(197001)
updateCurrDst(197027)
updateCurrDst(197109)
updateCurrDst(197256)
updateCurrDst(197295)
Heartbeat CPU 0 instructions: 107000001 cycles: 140982883 heartbeat IPC: 0.321792 cumulative IPC: 0.321395 (Simulation time: 0 hr 5 min 45 sec) 
updateCurrDst(197339)
updateCurrDst(197718)
updateCurrDst(197795)
updateCurrDst(197893)
updateCurrDst(197954)
updateCurrDst(198183)
updateCurrDst(198238)
updateCurrDst(198375)
updateCurrDst(198394)
updateCurrDst(198550)
updateCurrDst(198639)
updateCurrDst(198645)
updateCurrDst(199013)
updateCurrDst(199205)
updateCurrDst(199257)
Heartbeat CPU 0 instructions: 108000001 cycles: 144095682 heartbeat IPC: 0.321254 cumulative IPC: 0.321391 (Simulation time: 0 hr 5 min 49 sec) 
updateCurrDst(199553)
updateCurrDst(199561)
updateCurrDst(199647)
updateCurrDst(199663)
updateCurrDst(199751)
updateCurrDst(199784)
updateCurrDst(199855)
updateCurrDst(200249)
updateCurrDst(200276)
updateCurrDst(200400)
updateCurrDst(200471)
updateCurrDst(200487)
updateCurrDst(200579)
updateCurrDst(200622)
updateCurrDst(200634)
updateCurrDst(200649)
updateCurrDst(200835)
updateCurrDst(200857)
updateCurrDst(200979)
updateCurrDst(201083)
updateCurrDst(201093)
updateCurrDst(201096)
updateCurrDst(201160)
updateCurrDst(201230)
Heartbeat CPU 0 instructions: 109000000 cycles: 147200597 heartbeat IPC: 0.32207 cumulative IPC: 0.321408 (Simulation time: 0 hr 5 min 52 sec) 
updateCurrDst(201490)
updateCurrDst(201631)
updateCurrDst(201851)
updateCurrDst(202184)
updateCurrDst(202467)
updateCurrDst(202595)
updateCurrDst(202630)
updateCurrDst(202951)
updateCurrDst(203010)
updateCurrDst(203061)
updateCurrDst(203200)
updateCurrDst(203210)
updateCurrDst(203447)
updateCurrDst(203511)
updateCurrDst(203523)
updateCurrDst(203528)
Heartbeat CPU 0 instructions: 110000000 cycles: 150307667 heartbeat IPC: 0.321847 cumulative IPC: 0.321419 (Simulation time: 0 hr 5 min 56 sec) 
updateCurrDst(203790)
updateCurrDst(203820)
updateCurrDst(203898)
updateCurrDst(203935)
updateCurrDst(203982)
updateCurrDst(204125)
updateCurrDst(204241)
updateCurrDst(204263)
updateCurrDst(204284)
updateCurrDst(204363)
updateCurrDst(204394)
updateCurrDst(204428)
updateCurrDst(204515)
updateCurrDst(204536)
updateCurrDst(204538)
updateCurrDst(204733)
updateCurrDst(205060)
updateCurrDst(205113)
updateCurrDst(205128)
updateCurrDst(205200)
updateCurrDst(205241)
updateCurrDst(205375)
updateCurrDst(205571)
updateCurrDst(205629)
Heartbeat CPU 0 instructions: 111000002 cycles: 153416505 heartbeat IPC: 0.321664 cumulative IPC: 0.321424 (Simulation time: 0 hr 5 min 59 sec) 
updateCurrDst(205788)
updateCurrDst(205906)
updateCurrDst(205908)
updateCurrDst(205914)
updateCurrDst(206050)
updateCurrDst(206392)
updateCurrDst(206597)
updateCurrDst(206828)
updateCurrDst(206898)
updateCurrDst(206908)
updateCurrDst(207458)
updateCurrDst(207606)
updateCurrDst(207655)
updateCurrDst(207667)
updateCurrDst(207729)
updateCurrDst(207744)
Heartbeat CPU 0 instructions: 112000000 cycles: 156523309 heartbeat IPC: 0.321874 cumulative IPC: 0.321435 (Simulation time: 0 hr 6 min 3 sec) 
updateCurrDst(207760)
updateCurrDst(207821)
updateCurrDst(207857)
updateCurrDst(208006)
updateCurrDst(208205)
updateCurrDst(208295)
updateCurrDst(208337)
updateCurrDst(208527)
updateCurrDst(208584)
updateCurrDst(208750)
updateCurrDst(208760)
updateCurrDst(208790)
updateCurrDst(208836)
updateCurrDst(208976)
updateCurrDst(208994)
updateCurrDst(209032)
updateCurrDst(209139)
updateCurrDst(209178)
updateCurrDst(209321)
updateCurrDst(209331)
updateCurrDst(209347)
updateCurrDst(209348)
updateCurrDst(209519)
updateCurrDst(209622)
updateCurrDst(209679)
updateCurrDst(209823)
Heartbeat CPU 0 instructions: 113000001 cycles: 159641306 heartbeat IPC: 0.320719 cumulative IPC: 0.321419 (Simulation time: 0 hr 6 min 6 sec) 
updateCurrDst(209887)
updateCurrDst(209930)
updateCurrDst(210249)
updateCurrDst(210280)
updateCurrDst(210366)
updateCurrDst(210590)
updateCurrDst(210636)
updateCurrDst(210833)
updateCurrDst(211151)
updateCurrDst(211497)
updateCurrDst(211607)
updateCurrDst(211627)
updateCurrDst(211718)
updateCurrDst(211743)
updateCurrDst(211795)
Heartbeat CPU 0 instructions: 114000000 cycles: 162750394 heartbeat IPC: 0.321637 cumulative IPC: 0.321423 (Simulation time: 0 hr 6 min 10 sec) 
updateCurrDst(212226)
updateCurrDst(212293)
updateCurrDst(212363)
updateCurrDst(212390)
updateCurrDst(212422)
updateCurrDst(212518)
updateCurrDst(212632)
updateCurrDst(212732)
updateCurrDst(212790)
updateCurrDst(212941)
updateCurrDst(213038)
updateCurrDst(213103)
updateCurrDst(213145)
updateCurrDst(213182)
updateCurrDst(213417)
updateCurrDst(213490)
updateCurrDst(213572)
updateCurrDst(213598)
updateCurrDst(213690)
updateCurrDst(213749)
updateCurrDst(213776)
updateCurrDst(213806)
updateCurrDst(213945)
updateCurrDst(213954)
Heartbeat CPU 0 instructions: 115000002 cycles: 165861091 heartbeat IPC: 0.321472 cumulative IPC: 0.321425 (Simulation time: 0 hr 6 min 13 sec) 
updateCurrDst(214175)
updateCurrDst(214179)
updateCurrDst(214262)
updateCurrDst(214367)
updateCurrDst(214394)
updateCurrDst(214423)
updateCurrDst(214968)
updateCurrDst(215011)
updateCurrDst(215097)
updateCurrDst(215121)
updateCurrDst(215133)
updateCurrDst(215192)
updateCurrDst(215291)
updateCurrDst(215302)
updateCurrDst(215322)
updateCurrDst(215373)
updateCurrDst(215378)
updateCurrDst(215440)
updateCurrDst(215518)
updateCurrDst(215659)
updateCurrDst(215733)
updateCurrDst(216070)
Heartbeat CPU 0 instructions: 116000002 cycles: 168966387 heartbeat IPC: 0.32203 cumulative IPC: 0.321437 (Simulation time: 0 hr 6 min 16 sec) 
updateCurrDst(216262)
updateCurrDst(216274)
updateCurrDst(216297)
updateCurrDst(216301)
updateCurrDst(216328)
updateCurrDst(216356)
updateCurrDst(216507)
updateCurrDst(216515)
updateCurrDst(216610)
updateCurrDst(216720)
updateCurrDst(216798)
updateCurrDst(217039)
updateCurrDst(217107)
updateCurrDst(217205)
updateCurrDst(217226)
updateCurrDst(217249)
updateCurrDst(217288)
updateCurrDst(217380)
updateCurrDst(217483)
updateCurrDst(217518)
updateCurrDst(217597)
updateCurrDst(217768)
updateCurrDst(217895)
Heartbeat CPU 0 instructions: 117000002 cycles: 172079350 heartbeat IPC: 0.321237 cumulative IPC: 0.321433 (Simulation time: 0 hr 6 min 20 sec) 
updateCurrDst(218443)
updateCurrDst(218596)
updateCurrDst(218866)
updateCurrDst(218875)
updateCurrDst(218880)
updateCurrDst(218905)
updateCurrDst(219035)
updateCurrDst(219198)
updateCurrDst(219447)
updateCurrDst(219489)
updateCurrDst(219526)
updateCurrDst(219546)
updateCurrDst(219603)
updateCurrDst(219797)
updateCurrDst(220155)
updateCurrDst(220168)
updateCurrDst(220206)
updateCurrDst(220261)
Heartbeat CPU 0 instructions: 118000001 cycles: 175193818 heartbeat IPC: 0.321082 cumulative IPC: 0.321426 (Simulation time: 0 hr 6 min 23 sec) 
updateCurrDst(220313)
updateCurrDst(220344)
updateCurrDst(220473)
updateCurrDst(220528)
updateCurrDst(220564)
updateCurrDst(220571)
updateCurrDst(220601)
updateCurrDst(220658)
updateCurrDst(220927)
updateCurrDst(220960)
updateCurrDst(221129)
updateCurrDst(221163)
updateCurrDst(221243)
updateCurrDst(221327)
updateCurrDst(221527)
updateCurrDst(221570)
updateCurrDst(221602)
updateCurrDst(221609)
updateCurrDst(221623)
updateCurrDst(221666)
updateCurrDst(221677)
updateCurrDst(221779)
updateCurrDst(221969)
updateCurrDst(222101)
updateCurrDst(222169)
updateCurrDst(222317)
Heartbeat CPU 0 instructions: 119000000 cycles: 178310958 heartbeat IPC: 0.320807 cumulative IPC: 0.321414 (Simulation time: 0 hr 6 min 27 sec) 
updateCurrDst(222360)
updateCurrDst(222394)
updateCurrDst(222436)
updateCurrDst(222549)
updateCurrDst(222718)
updateCurrDst(222742)
updateCurrDst(222809)
updateCurrDst(222933)
updateCurrDst(222936)
updateCurrDst(222965)
updateCurrDst(222971)
updateCurrDst(223098)
updateCurrDst(223298)
updateCurrDst(223330)
updateCurrDst(223341)
updateCurrDst(223452)
updateCurrDst(223512)
updateCurrDst(223532)
updateCurrDst(223585)
updateCurrDst(224270)
updateCurrDst(224398)
updateCurrDst(224410)
updateCurrDst(224416)
Heartbeat CPU 0 instructions: 120000002 cycles: 181420644 heartbeat IPC: 0.321577 cumulative IPC: 0.321417 (Simulation time: 0 hr 6 min 30 sec) 
updateCurrDst(224449)
updateCurrDst(224588)
updateCurrDst(224701)
updateCurrDst(224748)
updateCurrDst(224799)
updateCurrDst(225020)
updateCurrDst(225195)
updateCurrDst(225252)
updateCurrDst(225412)
updateCurrDst(225420)
updateCurrDst(225466)
updateCurrDst(225574)
updateCurrDst(225601)
updateCurrDst(225710)
updateCurrDst(225741)
updateCurrDst(225868)
updateCurrDst(225907)
updateCurrDst(225914)
updateCurrDst(225963)
updateCurrDst(225978)
updateCurrDst(226226)
updateCurrDst(226240)
Heartbeat CPU 0 instructions: 121000000 cycles: 184533976 heartbeat IPC: 0.321199 cumulative IPC: 0.321413 (Simulation time: 0 hr 6 min 34 sec) 
updateCurrDst(226980)
updateCurrDst(227295)
updateCurrDst(227350)
updateCurrDst(227653)
updateCurrDst(227691)
updateCurrDst(227793)
updateCurrDst(227823)
updateCurrDst(228007)
updateCurrDst(228164)
updateCurrDst(228179)
updateCurrDst(228187)
updateCurrDst(228211)
updateCurrDst(228383)
updateCurrDst(228422)
updateCurrDst(228505)
Heartbeat CPU 0 instructions: 122000000 cycles: 187651356 heartbeat IPC: 0.320782 cumulative IPC: 0.321401 (Simulation time: 0 hr 6 min 38 sec) 
updateCurrDst(228606)
updateCurrDst(228912)
updateCurrDst(228935)
updateCurrDst(229157)
updateCurrDst(229245)
updateCurrDst(229278)
updateCurrDst(229299)
updateCurrDst(229408)
updateCurrDst(229531)
updateCurrDst(229541)
updateCurrDst(229596)
updateCurrDst(229835)
updateCurrDst(229945)
updateCurrDst(229952)
updateCurrDst(229956)
updateCurrDst(230030)
updateCurrDst(230041)
updateCurrDst(230101)
updateCurrDst(230166)
updateCurrDst(230191)
updateCurrDst(230213)
updateCurrDst(230232)
updateCurrDst(230521)
updateCurrDst(230602)
Heartbeat CPU 0 instructions: 123000001 cycles: 190762194 heartbeat IPC: 0.321457 cumulative IPC: 0.321402 (Simulation time: 0 hr 6 min 41 sec) 
updateCurrDst(230759)
updateCurrDst(231259)
updateCurrDst(231276)
updateCurrDst(231321)
updateCurrDst(231414)
updateCurrDst(231451)
updateCurrDst(231484)
updateCurrDst(231555)
updateCurrDst(231564)
updateCurrDst(231710)
updateCurrDst(231748)
updateCurrDst(231885)
updateCurrDst(231901)
updateCurrDst(231948)
updateCurrDst(232162)
updateCurrDst(232226)
updateCurrDst(232289)
updateCurrDst(232292)
updateCurrDst(232385)
updateCurrDst(232402)
updateCurrDst(232454)
updateCurrDst(232505)
updateCurrDst(232649)
updateCurrDst(232693)
Heartbeat CPU 0 instructions: 124000000 cycles: 193872286 heartbeat IPC: 0.321534 cumulative IPC: 0.321404 (Simulation time: 0 hr 6 min 45 sec) 
updateCurrDst(232811)
updateCurrDst(232839)
updateCurrDst(232927)
updateCurrDst(233037)
updateCurrDst(233405)
updateCurrDst(233438)
updateCurrDst(233456)
updateCurrDst(233639)
updateCurrDst(233676)
updateCurrDst(233802)
updateCurrDst(233852)
updateCurrDst(234149)
updateCurrDst(234188)
updateCurrDst(234235)
updateCurrDst(234276)
updateCurrDst(234501)
updateCurrDst(234785)
Heartbeat CPU 0 instructions: 125000002 cycles: 196983024 heartbeat IPC: 0.321468 cumulative IPC: 0.321405 (Simulation time: 0 hr 6 min 48 sec) 
updateCurrDst(234980)
updateCurrDst(235026)
updateCurrDst(235032)
updateCurrDst(235095)
updateCurrDst(235123)
updateCurrDst(235295)
updateCurrDst(235467)
updateCurrDst(235559)
updateCurrDst(235569)
updateCurrDst(235890)
updateCurrDst(236169)
updateCurrDst(236225)
updateCurrDst(236229)
updateCurrDst(236237)
updateCurrDst(236243)
updateCurrDst(236399)
updateCurrDst(236464)
updateCurrDst(236477)
updateCurrDst(236479)
updateCurrDst(236523)
updateCurrDst(236538)
updateCurrDst(236603)
updateCurrDst(236704)
updateCurrDst(236882)
Heartbeat CPU 0 instructions: 126000000 cycles: 200089628 heartbeat IPC: 0.321894 cumulative IPC: 0.321414 (Simulation time: 0 hr 6 min 52 sec) 
updateCurrDst(236918)
updateCurrDst(236964)
updateCurrDst(236974)
updateCurrDst(237192)
updateCurrDst(237246)
updateCurrDst(237306)
updateCurrDst(237434)
updateCurrDst(237595)
updateCurrDst(237777)
updateCurrDst(237788)
updateCurrDst(238192)
updateCurrDst(238324)
updateCurrDst(238397)
updateCurrDst(238581)
updateCurrDst(238865)
Heartbeat CPU 0 instructions: 127000001 cycles: 203208697 heartbeat IPC: 0.320609 cumulative IPC: 0.3214 (Simulation time: 0 hr 6 min 55 sec) 
updateCurrDst(239119)
updateCurrDst(239218)
updateCurrDst(239220)
updateCurrDst(239363)
updateCurrDst(239417)
updateCurrDst(239490)
updateCurrDst(239519)
updateCurrDst(239649)
updateCurrDst(239676)
updateCurrDst(239753)
updateCurrDst(239815)
updateCurrDst(239872)
updateCurrDst(239980)
updateCurrDst(240099)
updateCurrDst(240227)
updateCurrDst(240362)
updateCurrDst(240461)
updateCurrDst(240688)
updateCurrDst(240710)
updateCurrDst(240802)
updateCurrDst(240897)
Heartbeat CPU 0 instructions: 128000001 cycles: 206320713 heartbeat IPC: 0.321335 cumulative IPC: 0.321399 (Simulation time: 0 hr 6 min 59 sec) 
updateCurrDst(241172)
updateCurrDst(241200)
updateCurrDst(241500)
updateCurrDst(241541)
updateCurrDst(241764)
updateCurrDst(241814)
updateCurrDst(241869)
updateCurrDst(241913)
updateCurrDst(242142)
updateCurrDst(242162)
updateCurrDst(242207)
updateCurrDst(242230)
updateCurrDst(242244)
updateCurrDst(242259)
updateCurrDst(242283)
updateCurrDst(242380)
updateCurrDst(242459)
updateCurrDst(242535)
updateCurrDst(242585)
updateCurrDst(242833)
updateCurrDst(243053)
updateCurrDst(243105)
Heartbeat CPU 0 instructions: 129000002 cycles: 209432625 heartbeat IPC: 0.321346 cumulative IPC: 0.321398 (Simulation time: 0 hr 7 min 2 sec) 
updateCurrDst(243196)
updateCurrDst(243230)
updateCurrDst(243348)
updateCurrDst(243389)
updateCurrDst(243458)
updateCurrDst(243598)
updateCurrDst(243674)
updateCurrDst(243787)
updateCurrDst(243952)
updateCurrDst(244083)
updateCurrDst(244156)
updateCurrDst(244219)
updateCurrDst(244227)
updateCurrDst(244427)
updateCurrDst(244637)
updateCurrDst(244686)
updateCurrDst(244700)
updateCurrDst(244744)
updateCurrDst(244796)
updateCurrDst(244861)
updateCurrDst(245035)
Heartbeat CPU 0 instructions: 130000003 cycles: 212549681 heartbeat IPC: 0.320816 cumulative IPC: 0.321388 (Simulation time: 0 hr 7 min 5 sec) 
updateCurrDst(245207)
updateCurrDst(245259)
updateCurrDst(245460)
updateCurrDst(245461)
updateCurrDst(245512)
updateCurrDst(245563)
updateCurrDst(245590)
updateCurrDst(245674)
updateCurrDst(245911)
updateCurrDst(245960)
updateCurrDst(245987)
updateCurrDst(245993)
updateCurrDst(246030)
updateCurrDst(246438)
updateCurrDst(246976)
updateCurrDst(247187)
updateCurrDst(247245)
Heartbeat CPU 0 instructions: 131000000 cycles: 215665847 heartbeat IPC: 0.320906 cumulative IPC: 0.321381 (Simulation time: 0 hr 7 min 9 sec) 
updateCurrDst(247347)
updateCurrDst(247352)
updateCurrDst(247444)
updateCurrDst(247515)
updateCurrDst(247521)
updateCurrDst(247599)
updateCurrDst(247772)
updateCurrDst(247946)
updateCurrDst(247977)
updateCurrDst(247992)
updateCurrDst(248079)
updateCurrDst(248105)
updateCurrDst(248131)
updateCurrDst(248167)
updateCurrDst(248224)
updateCurrDst(248454)
updateCurrDst(248584)
updateCurrDst(248669)
updateCurrDst(248934)
updateCurrDst(248957)
updateCurrDst(248970)
updateCurrDst(249125)
updateCurrDst(249168)
updateCurrDst(249200)
updateCurrDst(249229)
updateCurrDst(249314)
Heartbeat CPU 0 instructions: 132000000 cycles: 218780555 heartbeat IPC: 0.321057 cumulative IPC: 0.321375 (Simulation time: 0 hr 7 min 12 sec) 
updateCurrDst(249585)
updateCurrDst(249843)
updateCurrDst(249851)
updateCurrDst(249931)
updateCurrDst(250096)
updateCurrDst(250099)
updateCurrDst(250362)
updateCurrDst(250429)
updateCurrDst(250455)
updateCurrDst(250539)
updateCurrDst(250612)
updateCurrDst(250755)
updateCurrDst(250820)
updateCurrDst(250883)
updateCurrDst(250954)
updateCurrDst(251023)
updateCurrDst(251108)
updateCurrDst(251312)
updateCurrDst(251381)
Heartbeat CPU 0 instructions: 133000000 cycles: 221892437 heartbeat IPC: 0.321349 cumulative IPC: 0.321375 (Simulation time: 0 hr 7 min 16 sec) 
updateCurrDst(251405)
updateCurrDst(251538)
updateCurrDst(251544)
updateCurrDst(251547)
updateCurrDst(251634)
updateCurrDst(252067)
updateCurrDst(252113)
updateCurrDst(252249)
updateCurrDst(252321)
updateCurrDst(252426)
updateCurrDst(252656)
updateCurrDst(252668)
updateCurrDst(252867)
updateCurrDst(252913)
updateCurrDst(253038)
updateCurrDst(253168)
updateCurrDst(253169)
updateCurrDst(253195)
updateCurrDst(253320)
updateCurrDst(253360)
updateCurrDst(253475)
Heartbeat CPU 0 instructions: 134000000 cycles: 224998440 heartbeat IPC: 0.321957 cumulative IPC: 0.321384 (Simulation time: 0 hr 7 min 19 sec) 
updateCurrDst(253810)
updateCurrDst(253978)
updateCurrDst(254027)
updateCurrDst(254170)
updateCurrDst(254273)
updateCurrDst(254699)
updateCurrDst(254719)
updateCurrDst(254722)
updateCurrDst(254733)
updateCurrDst(254942)
updateCurrDst(255041)
updateCurrDst(255214)
updateCurrDst(255242)
updateCurrDst(255367)
updateCurrDst(255441)
Heartbeat CPU 0 instructions: 135000000 cycles: 228112017 heartbeat IPC: 0.321174 cumulative IPC: 0.321381 (Simulation time: 0 hr 7 min 23 sec) 
updateCurrDst(255569)
updateCurrDst(255591)
updateCurrDst(255655)
updateCurrDst(255797)
updateCurrDst(255990)
updateCurrDst(256025)
updateCurrDst(256281)
updateCurrDst(256328)
updateCurrDst(256424)
updateCurrDst(256569)
updateCurrDst(256623)
updateCurrDst(256625)
updateCurrDst(256647)
updateCurrDst(257192)
updateCurrDst(257233)
updateCurrDst(257269)
updateCurrDst(257345)
updateCurrDst(257426)
updateCurrDst(257517)
updateCurrDst(257582)
Heartbeat CPU 0 instructions: 136000000 cycles: 231224844 heartbeat IPC: 0.321251 cumulative IPC: 0.321379 (Simulation time: 0 hr 7 min 26 sec) 
updateCurrDst(257813)
updateCurrDst(257862)
updateCurrDst(257937)
updateCurrDst(257946)
updateCurrDst(258267)
updateCurrDst(258320)
updateCurrDst(258326)
updateCurrDst(258389)
updateCurrDst(258421)
updateCurrDst(258429)
updateCurrDst(258833)
updateCurrDst(258835)
updateCurrDst(259127)
updateCurrDst(259134)
updateCurrDst(259202)
updateCurrDst(259257)
updateCurrDst(259287)
updateCurrDst(259479)
updateCurrDst(259502)
updateCurrDst(259635)
updateCurrDst(259663)
updateCurrDst(259692)
Heartbeat CPU 0 instructions: 137000000 cycles: 234331774 heartbeat IPC: 0.321861 cumulative IPC: 0.321386 (Simulation time: 0 hr 7 min 30 sec) 
updateCurrDst(259780)
updateCurrDst(260803)
updateCurrDst(260868)
updateCurrDst(261088)
updateCurrDst(261167)
updateCurrDst(261233)
updateCurrDst(261319)
updateCurrDst(261364)
updateCurrDst(261455)
*** Reached end of trace for Core: 0 Repeating trace: ./tracer/pull_u18_k3.xzafter: 138000000
Heartbeat CPU 0 instructions: 138000001 cycles: 237447318 heartbeat IPC: 0.320972 cumulative IPC: 0.32138 (Simulation time: 0 hr 7 min 34 sec) 
Finished CPU 0 instructions: 69000000 cycles: 214699153 cumulative IPC: 0.32138 (Simulation time: 0 hr 7 min 34 sec) 

ChampSim completed all CPUs

Region of Interest Statistics

CPU 0 cumulative IPC: 0.32138 instructions: 69000000 cycles: 214699153

Total ROB STALLS:                   24670439
STLB MISS ROB STALLS:                   1231
L1D  LOAD MISS ROB STALLS:            904515  Translation MISS ROB STALLS:             0
L2C  LOAD MISS ROB STALLS:            559616  Translation MISS ROB STALLS:             0
LLC  LOAD MISS ROB STALLS:             80798  Translation MISS ROB STALLS:             0

ITLB TOTAL     ACCESS:           9331648  HIT:    9331648  MISS:          0  HIT %:        100  MISS %:          0   MPKI: 0
ITLB LOAD TRANSLATION ACCESS:    9331648  HIT:    9331648  MISS:          0  HIT %:        100  MISS %:          0   MPKI: 0
ITLB AVERAGE MISS LATENCY:          -nan cycles
ITLB RQ ACCESS:    10184907	FORWARD:           0	MERGED:       853260	TO_CACHE:    9331647

DTLB TOTAL     ACCESS:          21474185  HIT:   20810033  MISS:     664152  HIT %:    96.9072  MISS %:    3.09279   MPKI: 9.62539
DTLB LOAD TRANSLATION ACCESS:   21474185  HIT:   20810033  MISS:     664152  HIT %:    96.9072  MISS %:    3.09279   MPKI: 9.62539
DTLB AVERAGE MISS LATENCY:       9.41076 cycles
DTLB RQ ACCESS:    29696180	FORWARD:           0	MERGED:      8221995	TO_CACHE:   21474185

STLB TOTAL     ACCESS:            664152  HIT:     662921  MISS:       1231  HIT %:    99.8147  MISS %:   0.185349   MPKI: 0.0178406
STLB LOAD TRANSLATION ACCESS:     664152  HIT:     662921  MISS:       1231  HIT %:    99.8147  MISS %:   0.185349   MPKI: 0.0178406
STLB AVERAGE MISS LATENCY:       221.616 cycles
STLB RQ ACCESS:      664152	FORWARD:           0	MERGED:            0	TO_CACHE:     664152

PSCL5 TOTAL     ACCESS:              1231  HIT:       1231  MISS:          0  HIT %:        100  MISS %:          0   MPKI: 0
PSCL5 LOAD TRANSLATION ACCESS:       1231  HIT:       1231  MISS:          0  HIT %:        100  MISS %:          0   MPKI: 0

PSCL4 TOTAL     ACCESS:              1231  HIT:       1231  MISS:          0  HIT %:        100  MISS %:          0   MPKI: 0
PSCL4 LOAD TRANSLATION ACCESS:       1231  HIT:       1231  MISS:          0  HIT %:        100  MISS %:          0   MPKI: 0

PSCL3 TOTAL     ACCESS:              1231  HIT:       1231  MISS:          0  HIT %:        100  MISS %:          0   MPKI: 0
PSCL3 LOAD TRANSLATION ACCESS:       1231  HIT:       1231  MISS:          0  HIT %:        100  MISS %:          0   MPKI: 0

PSCL2 TOTAL     ACCESS:              1231  HIT:       1230  MISS:          1  HIT %:    99.9188  MISS %:  0.0812348   MPKI: 1.44928e-05
PSCL2 LOAD TRANSLATION ACCESS:       1231  HIT:       1230  MISS:          1  HIT %:    99.9188  MISS %:  0.0812348   MPKI: 1.44928e-05

L1D TOTAL     ACCESS:          29696180  HIT:   28791665  MISS:     904515  HIT %:    96.9541  MISS %:     3.0459   MPKI: 13.1089  USED:     115715  UNUSED:     788800
L1D LOAD      ACCESS:          13789269  HIT:   12884754  MISS:     904515  HIT %:    93.4404  MISS %:    6.55956   MPKI: 13.1089  USED:     115715  UNUSED:     788800
L1D RFO       ACCESS:          15906911  HIT:   15906911  MISS:          0  HIT %:        100  MISS %:          0   MPKI: 0
L1D PTL1 TRANSLATION ACCESS:          0  HIT:          0  MISS:          0  HIT %:       -nan  MISS %:       -nan   MPKI: 0
L1D PTL2 TRANSLATION ACCESS:          0  HIT:          0  MISS:          0  HIT %:       -nan  MISS %:       -nan   MPKI: 0
L1D PTL3 TRANSLATION ACCESS:          0  HIT:          0  MISS:          0  HIT %:       -nan  MISS %:       -nan   MPKI: 0
L1D PTL4 TRANSLATION ACCESS:          0  HIT:          0  MISS:          0  HIT %:       -nan  MISS %:       -nan   MPKI: 0
L1D PTL5 TRANSLATION ACCESS:          0  HIT:          0  MISS:          0  HIT %:       -nan  MISS %:       -nan   MPKI: 0
L1D TOTAL EVICTIONS:             904515  TRANSLATION EVICTIONS:          0  TRANSLATION EVICTING TRANSALTION:          0  TRANSLATION EVICTING LOAD:          0  LOAD EVICTING TRANSALTION:          0  LOAD EVICTING LOAD:      904515
L1D AVERAGE MISS LATENCY:       45.9523 cycles  AVERAGE LOAD MISS LATENCY:       45.9523 cycles  AVERAGE LOAD TRANSLATION MISS LATENCY:          -nan cycles
L1D RQ ACCESS:    17144684	FORWARD:           0	MERGED:      1874302	TO_CACHE:   13789270
L1D WQ ACCESS:    15923136	FORWARD:     1481112	MERGED:        16226	TO_CACHE:   15906910

L1I TOTAL     ACCESS:          10184908  HIT:   10184908  MISS:          0  HIT %:        100  MISS %:          0   MPKI: 0
L1I LOAD      ACCESS:          10184908  HIT:   10184908  MISS:          0  HIT %:        100  MISS %:          0   MPKI: 0
L1I AVERAGE MISS LATENCY:          -nan cycles
L1I RQ ACCESS:    16098024	FORWARD:           0	MERGED:      5913117	TO_CACHE:   10184907

L2C TOTAL     ACCESS:            913486  HIT:     353870  MISS:     559616  HIT %:    38.7384  MISS %:    61.2616   MPKI: 8.11038  USED:     200357  UNUSED:     359259
L2C LOAD      ACCESS:            904515  HIT:     344899  MISS:     559616  HIT %:    38.1308  MISS %:    61.8692   MPKI: 8.11038  USED:     200357  UNUSED:     359259
L2C WRITEBACK ACCESS:              8971  HIT:       8971  MISS:          0  HIT %:        100  MISS %:          0   MPKI: 0
L2C PTL1 TRANSLATION ACCESS:          0  HIT:          0  MISS:          0  HIT %:       -nan  MISS %:       -nan   MPKI: 0
L2C PTL2 TRANSLATION ACCESS:          0  HIT:          0  MISS:          0  HIT %:       -nan  MISS %:       -nan   MPKI: 0
L2C PTL3 TRANSLATION ACCESS:          0  HIT:          0  MISS:          0  HIT %:       -nan  MISS %:       -nan   MPKI: 0
L2C PTL4 TRANSLATION ACCESS:          0  HIT:          0  MISS:          0  HIT %:       -nan  MISS %:       -nan   MPKI: 0
L2C PTL5 TRANSLATION ACCESS:          0  HIT:          0  MISS:          0  HIT %:       -nan  MISS %:       -nan   MPKI: 0
L2C TOTAL EVICTIONS:             559616  TRANSLATION EVICTIONS:          0  TRANSLATION EVICTING TRANSALTION:          0  TRANSLATION EVICTING LOAD:          0  LOAD EVICTING TRANSALTION:          0  LOAD EVICTING LOAD:      559616
L2C AVERAGE MISS LATENCY:       50.0287 cycles  AVERAGE LOAD MISS LATENCY:       50.0287 cycles  AVERAGE LOAD TRANSLATION MISS LATENCY:          -nan cycles
L2C RQ ACCESS:      904516	FORWARD:           0	MERGED:            0	TO_CACHE:     904516
L2C WQ ACCESS:        8971	FORWARD:           0	MERGED:            0	TO_CACHE:       8971

LLC TOTAL     ACCESS:            568574  HIT:     487776  MISS:      80798  HIT %:    85.7894  MISS %:    14.2106   MPKI: 1.17099  USED:        118  UNUSED:      80680
LLC LOAD      ACCESS:            559616  HIT:     478818  MISS:      80798  HIT %:    85.5619  MISS %:    14.4381   MPKI: 1.17099  USED:         47  UNUSED:      80680
LLC WRITEBACK ACCESS:              8958  HIT:       8958  MISS:          0  HIT %:        100  MISS %:          0   MPKI: 0
LLC PTL1 TRANSLATION ACCESS:          0  HIT:          0  MISS:          0  HIT %:       -nan  MISS %:       -nan   MPKI: 0
LLC PTL2 TRANSLATION ACCESS:          0  HIT:          0  MISS:          0  HIT %:       -nan  MISS %:       -nan   MPKI: 0
LLC PTL3 TRANSLATION ACCESS:          0  HIT:          0  MISS:          0  HIT %:       -nan  MISS %:       -nan   MPKI: 0
LLC PTL4 TRANSLATION ACCESS:          0  HIT:          0  MISS:          0  HIT %:       -nan  MISS %:       -nan   MPKI: 0
LLC PTL5 TRANSLATION ACCESS:          0  HIT:          0  MISS:          0  HIT %:       -nan  MISS %:       -nan   MPKI: 0
LLC TOTAL EVICTIONS:              80798  TRANSLATION EVICTIONS:          0  TRANSLATION EVICTING TRANSALTION:          0  TRANSLATION EVICTING LOAD:          0  LOAD EVICTING TRANSALTION:          0  LOAD EVICTING LOAD:       80727
LLC AVERAGE MISS LATENCY:       138.721 cycles  AVERAGE LOAD MISS LATENCY:       138.721 cycles  AVERAGE LOAD TRANSLATION MISS LATENCY:          -nan cycles
LLC RQ ACCESS:      559616	FORWARD:           0	MERGED:            0	TO_CACHE:     559616
LLC WQ ACCESS:        8958	FORWARD:           0	MERGED:            0	TO_CACHE:       8958


RAW hits: 12118866
Loads Generated: 29263552
Loads sent to L1D: 17144684
Stores Generated: 15923135
Stores sent to L1D: 15923136
Major fault: 0 Minor fault: 3158
Allocated PAGES: 3158
IRREG DATA L1D ACCESS: 1570680
L2C ACCESSES: 1504633
L2C MISSES: 876387

DRAM Statistics
 CHANNEL 0
 RQ ROW_BUFFER_HIT:      25276  ROW_BUFFER_MISS:      56753
 DBUS_CONGESTED:          0
 WQ ROW_BUFFER_HIT:          5  ROW_BUFFER_MISS:       8973  FULL:          0

 AVG_CONGESTED_CYCLE: -

CPU 0 Branch Prediction Accuracy: 98.3147% MPKI: 2.06712 Average ROB Occupancy at Mispredict: 17.7625
Branch types
NOT_BRANCH: 60536152 87.7336%
BRANCH_DIRECT_JUMP: 0 0%
BRANCH_INDIRECT: 1003924 1.45496%
BRANCH_CONDITIONAL: 0 0%
BRANCH_DIRECT_CALL: 143526 0.208009%
BRANCH_INDIRECT_CALL: 2869005 4.15798%
BRANCH_RETURN: 3012529 4.36598%
BRANCH_OTHER: 1434502 2.07899%

DRAM PAGES: 1048576
Allocated PAGES: 3158
