
*** ChampSim Multicore Out-of-Order Simulator ***

Warmup Instructions: 42000000
Simulation Instructions: 42000000
Number of CPUs: 1
LLC sets: 2048
LLC ways: 16
Off-chip DRAM Size: 4096 MB Channels: 1 Width: 64-bit Data Rate: 6400 MT/s
CPU 0 runs ./tracer/pull_u17_k4.xz
.xz
BTB has LRU replacement policy
ITLB has LRU replacement policy
DTLB has LRU replacement policy
STLB has LRU replacement policy
L1I has LRU replacement policy
L1D has LRU replacement policy
L2C has LRU replacement policy
Initialize DRRIP state for LLC
Heartbeat CPU 0 instructions: 1000001 cycles: 346727 heartbeat IPC: 2.88412 cumulative IPC: 2.88412 (Simulation time: 0 hr 0 min 2 sec) 
Heartbeat CPU 0 instructions: 2000000 cycles: 693435 heartbeat IPC: 2.88427 cumulative IPC: 2.88419 (Simulation time: 0 hr 0 min 5 sec) 
Heartbeat CPU 0 instructions: 3000002 cycles: 1040145 heartbeat IPC: 2.88426 cumulative IPC: 2.88422 (Simulation time: 0 hr 0 min 9 sec) 
PIN_registerGraphs(random_u17_k4.sg,1)
Graphh Number of Nodes: 131072
Heartbeat CPU 0 instructions: 4000002 cycles: 1381288 heartbeat IPC: 2.93132 cumulative IPC: 2.89585 (Simulation time: 0 hr 0 min 11 sec) 
Heartbeat CPU 0 instructions: 5000001 cycles: 1714552 heartbeat IPC: 3.00062 cumulative IPC: 2.91621 (Simulation time: 0 hr 0 min 13 sec) 
PIN_updateRegBaseBound( 94494678814928, 94494679339216)
updateCurrDst(80)
updateCurrDst(266)
updateCurrDst(319)
updateCurrDst(431)
updateCurrDst(493)
Heartbeat CPU 0 instructions: 6000001 cycles: 2042519 heartbeat IPC: 3.04909 cumulative IPC: 2.93755 (Simulation time: 0 hr 0 min 15 sec) 
updateCurrDst(671)
updateCurrDst(771)
updateCurrDst(1027)
updateCurrDst(1130)
updateCurrDst(1138)
updateCurrDst(1218)
updateCurrDst(1334)
updateCurrDst(1368)
updateCurrDst(1726)
updateCurrDst(1728)
updateCurrDst(1837)
updateCurrDst(2133)
updateCurrDst(2135)
Heartbeat CPU 0 instructions: 7000001 cycles: 2359630 heartbeat IPC: 3.15347 cumulative IPC: 2.96657 (Simulation time: 0 hr 0 min 18 sec) 
updateCurrDst(2390)
updateCurrDst(2421)
updateCurrDst(2480)
updateCurrDst(2501)
updateCurrDst(2669)
updateCurrDst(2764)
updateCurrDst(2805)
updateCurrDst(3139)
updateCurrDst(3254)
updateCurrDst(3283)
updateCurrDst(3331)
updateCurrDst(3595)
updateCurrDst(3655)
updateCurrDst(3784)
updateCurrDst(3806)
updateCurrDst(3890)
updateCurrDst(4009)
Heartbeat CPU 0 instructions: 8000003 cycles: 2676349 heartbeat IPC: 3.15738 cumulative IPC: 2.98915 (Simulation time: 0 hr 0 min 21 sec) 
updateCurrDst(4091)
updateCurrDst(4098)
updateCurrDst(4101)
updateCurrDst(4129)
updateCurrDst(4198)
updateCurrDst(4240)
updateCurrDst(4311)
updateCurrDst(4431)
updateCurrDst(4474)
updateCurrDst(4523)
updateCurrDst(4716)
updateCurrDst(4956)
updateCurrDst(4957)
updateCurrDst(4984)
updateCurrDst(5022)
updateCurrDst(5027)
updateCurrDst(5033)
updateCurrDst(5122)
updateCurrDst(5128)
updateCurrDst(5254)
updateCurrDst(5353)
updateCurrDst(5607)
updateCurrDst(5719)
Heartbeat CPU 0 instructions: 9000002 cycles: 2993436 heartbeat IPC: 3.15371 cumulative IPC: 3.00658 (Simulation time: 0 hr 0 min 24 sec) 
updateCurrDst(5794)
updateCurrDst(5881)
updateCurrDst(5996)
updateCurrDst(6004)
updateCurrDst(6175)
updateCurrDst(6435)
updateCurrDst(6532)
updateCurrDst(6646)
updateCurrDst(6667)
updateCurrDst(6693)
updateCurrDst(6699)
updateCurrDst(6730)
updateCurrDst(6900)
updateCurrDst(6987)
updateCurrDst(7133)
updateCurrDst(7138)
updateCurrDst(7164)
updateCurrDst(7185)
updateCurrDst(7194)
updateCurrDst(7215)
updateCurrDst(7424)
updateCurrDst(7460)
updateCurrDst(7484)
Heartbeat CPU 0 instructions: 10000003 cycles: 3310759 heartbeat IPC: 3.15137 cumulative IPC: 3.02046 (Simulation time: 0 hr 0 min 27 sec) 
updateCurrDst(7593)
updateCurrDst(7603)
updateCurrDst(7821)
updateCurrDst(7923)
updateCurrDst(7972)
updateCurrDst(8054)
updateCurrDst(8072)
updateCurrDst(8165)
updateCurrDst(8198)
updateCurrDst(8336)
updateCurrDst(8582)
updateCurrDst(8701)
updateCurrDst(8787)
updateCurrDst(8903)
updateCurrDst(8975)
updateCurrDst(9076)
Heartbeat CPU 0 instructions: 11000000 cycles: 3627756 heartbeat IPC: 3.15459 cumulative IPC: 3.03218 (Simulation time: 0 hr 0 min 30 sec) 
updateCurrDst(9473)
updateCurrDst(9507)
updateCurrDst(9672)
updateCurrDst(9770)
updateCurrDst(9855)
updateCurrDst(9891)
updateCurrDst(10046)
updateCurrDst(10091)
updateCurrDst(10121)
updateCurrDst(10452)
updateCurrDst(10486)
updateCurrDst(10524)
updateCurrDst(10577)
updateCurrDst(10656)
updateCurrDst(10707)
updateCurrDst(10842)
updateCurrDst(10883)
Heartbeat CPU 0 instructions: 12000001 cycles: 3944855 heartbeat IPC: 3.15359 cumulative IPC: 3.04194 (Simulation time: 0 hr 0 min 33 sec) 
updateCurrDst(11032)
updateCurrDst(11179)
updateCurrDst(11222)
updateCurrDst(11481)
updateCurrDst(11849)
updateCurrDst(11901)
updateCurrDst(11923)
updateCurrDst(12066)
updateCurrDst(12147)
updateCurrDst(12161)
updateCurrDst(12224)
updateCurrDst(12251)
updateCurrDst(12266)
updateCurrDst(12285)
updateCurrDst(12373)
updateCurrDst(12445)
updateCurrDst(12572)
updateCurrDst(12652)
updateCurrDst(12665)
Heartbeat CPU 0 instructions: 13000001 cycles: 4261657 heartbeat IPC: 3.15655 cumulative IPC: 3.05046 (Simulation time: 0 hr 0 min 37 sec) 
updateCurrDst(12683)
updateCurrDst(12784)
updateCurrDst(12829)
updateCurrDst(13212)
updateCurrDst(13297)
updateCurrDst(13533)
updateCurrDst(13540)
updateCurrDst(13585)
updateCurrDst(13708)
updateCurrDst(13880)
updateCurrDst(13897)
updateCurrDst(13909)
updateCurrDst(13951)
updateCurrDst(14404)
Heartbeat CPU 0 instructions: 14000002 cycles: 4578680 heartbeat IPC: 3.15435 cumulative IPC: 3.05765 (Simulation time: 0 hr 0 min 40 sec) 
updateCurrDst(14441)
updateCurrDst(14483)
updateCurrDst(14498)
updateCurrDst(14727)
updateCurrDst(14732)
updateCurrDst(14817)
updateCurrDst(14985)
updateCurrDst(14997)
updateCurrDst(15114)
updateCurrDst(15132)
updateCurrDst(15305)
updateCurrDst(15379)
updateCurrDst(15401)
updateCurrDst(15411)
updateCurrDst(15412)
updateCurrDst(15436)
updateCurrDst(15510)
updateCurrDst(15530)
updateCurrDst(15645)
updateCurrDst(15708)
updateCurrDst(15828)
updateCurrDst(16051)
updateCurrDst(16080)
Heartbeat CPU 0 instructions: 15000002 cycles: 4895655 heartbeat IPC: 3.15482 cumulative IPC: 3.06394 (Simulation time: 0 hr 0 min 43 sec) 
updateCurrDst(16149)
updateCurrDst(16278)
updateCurrDst(16372)
updateCurrDst(16397)
updateCurrDst(16441)
updateCurrDst(16630)
updateCurrDst(16632)
updateCurrDst(16749)
updateCurrDst(16892)
updateCurrDst(17120)
updateCurrDst(17156)
updateCurrDst(17163)
updateCurrDst(17205)
updateCurrDst(17323)
updateCurrDst(17443)
updateCurrDst(17461)
updateCurrDst(17467)
updateCurrDst(17765)
updateCurrDst(17780)
updateCurrDst(17805)
Heartbeat CPU 0 instructions: 16000001 cycles: 5212615 heartbeat IPC: 3.15497 cumulative IPC: 3.06948 (Simulation time: 0 hr 0 min 47 sec) 
updateCurrDst(17902)
updateCurrDst(17990)
updateCurrDst(18098)
updateCurrDst(18124)
updateCurrDst(18128)
updateCurrDst(18267)
updateCurrDst(18374)
updateCurrDst(18505)
updateCurrDst(18561)
updateCurrDst(18748)
updateCurrDst(18894)
updateCurrDst(19013)
updateCurrDst(19074)
updateCurrDst(19075)
updateCurrDst(19302)
updateCurrDst(19355)
updateCurrDst(19446)
updateCurrDst(19472)
updateCurrDst(19559)
Heartbeat CPU 0 instructions: 17000002 cycles: 5529483 heartbeat IPC: 3.15589 cumulative IPC: 3.07443 (Simulation time: 0 hr 0 min 50 sec) 
updateCurrDst(19650)
updateCurrDst(19810)
updateCurrDst(19976)
updateCurrDst(19983)
updateCurrDst(20050)
updateCurrDst(20356)
updateCurrDst(20391)
updateCurrDst(20493)
updateCurrDst(20612)
updateCurrDst(20619)
updateCurrDst(21092)
updateCurrDst(21140)
updateCurrDst(21171)
updateCurrDst(21215)
Heartbeat CPU 0 instructions: 18000003 cycles: 5846299 heartbeat IPC: 3.15641 cumulative IPC: 3.07887 (Simulation time: 0 hr 0 min 53 sec) 
updateCurrDst(21426)
updateCurrDst(21458)
updateCurrDst(21471)
updateCurrDst(21738)
updateCurrDst(21766)
updateCurrDst(21790)
updateCurrDst(21799)
updateCurrDst(21844)
updateCurrDst(21938)
updateCurrDst(22052)
updateCurrDst(22109)
updateCurrDst(22162)
updateCurrDst(22450)
updateCurrDst(22535)
updateCurrDst(22574)
updateCurrDst(22646)
updateCurrDst(22651)
updateCurrDst(22849)
updateCurrDst(22852)
updateCurrDst(23062)
Heartbeat CPU 0 instructions: 19000001 cycles: 6163463 heartbeat IPC: 3.15294 cumulative IPC: 3.08268 (Simulation time: 0 hr 0 min 56 sec) 
updateCurrDst(23147)
updateCurrDst(23510)
updateCurrDst(23558)
updateCurrDst(23582)
updateCurrDst(23671)
updateCurrDst(23680)
updateCurrDst(23685)
updateCurrDst(23709)
updateCurrDst(23859)
updateCurrDst(23888)
updateCurrDst(23902)
updateCurrDst(24033)
updateCurrDst(24329)
updateCurrDst(24377)
updateCurrDst(24415)
updateCurrDst(24460)
updateCurrDst(24646)
updateCurrDst(24706)
Heartbeat CPU 0 instructions: 20000003 cycles: 6480356 heartbeat IPC: 3.15565 cumulative IPC: 3.08625 (Simulation time: 0 hr 1 min 0 sec) 
updateCurrDst(24822)
updateCurrDst(25051)
updateCurrDst(25052)
updateCurrDst(25063)
updateCurrDst(25396)
updateCurrDst(25398)
updateCurrDst(25462)
updateCurrDst(25471)
updateCurrDst(25571)
updateCurrDst(25652)
updateCurrDst(25827)
updateCurrDst(26013)
updateCurrDst(26155)
updateCurrDst(26174)
updateCurrDst(26240)
updateCurrDst(26363)
updateCurrDst(26541)
Heartbeat CPU 0 instructions: 21000000 cycles: 6797298 heartbeat IPC: 3.15514 cumulative IPC: 3.08946 (Simulation time: 0 hr 1 min 3 sec) 
updateCurrDst(26562)
updateCurrDst(26626)
updateCurrDst(26683)
updateCurrDst(26741)
updateCurrDst(26748)
updateCurrDst(27010)
updateCurrDst(27116)
updateCurrDst(27145)
updateCurrDst(27167)
updateCurrDst(27243)
updateCurrDst(27276)
updateCurrDst(27299)
updateCurrDst(27360)
updateCurrDst(27515)
updateCurrDst(27586)
updateCurrDst(27618)
updateCurrDst(27680)
updateCurrDst(27694)
updateCurrDst(27781)
updateCurrDst(27827)
updateCurrDst(28031)
updateCurrDst(28070)
updateCurrDst(28195)
Heartbeat CPU 0 instructions: 22000000 cycles: 7114319 heartbeat IPC: 3.15437 cumulative IPC: 3.09236 (Simulation time: 0 hr 1 min 6 sec) 
updateCurrDst(28386)
updateCurrDst(28830)
updateCurrDst(28891)
updateCurrDst(29080)
updateCurrDst(29101)
updateCurrDst(29107)
updateCurrDst(29307)
updateCurrDst(29342)
updateCurrDst(29356)
updateCurrDst(29376)
updateCurrDst(29593)
updateCurrDst(29638)
updateCurrDst(29670)
updateCurrDst(29873)
updateCurrDst(29941)
Heartbeat CPU 0 instructions: 23000000 cycles: 7431362 heartbeat IPC: 3.15415 cumulative IPC: 3.09499 (Simulation time: 0 hr 1 min 10 sec) 
updateCurrDst(30025)
updateCurrDst(30176)
updateCurrDst(30363)
updateCurrDst(30378)
updateCurrDst(30414)
updateCurrDst(30498)
updateCurrDst(30535)
updateCurrDst(30574)
updateCurrDst(30779)
updateCurrDst(30859)
updateCurrDst(30954)
updateCurrDst(31237)
updateCurrDst(31326)
updateCurrDst(31393)
updateCurrDst(31421)
updateCurrDst(31443)
updateCurrDst(31571)
updateCurrDst(31717)
Heartbeat CPU 0 instructions: 24000002 cycles: 7748356 heartbeat IPC: 3.15464 cumulative IPC: 3.09743 (Simulation time: 0 hr 1 min 13 sec) 
updateCurrDst(31846)
updateCurrDst(31847)
updateCurrDst(31877)
updateCurrDst(32066)
updateCurrDst(32168)
updateCurrDst(32566)
updateCurrDst(32624)
updateCurrDst(32725)
updateCurrDst(32905)
updateCurrDst(32908)
updateCurrDst(33138)
updateCurrDst(33181)
updateCurrDst(33379)
Heartbeat CPU 0 instructions: 25000000 cycles: 8065625 heartbeat IPC: 3.15189 cumulative IPC: 3.09957 (Simulation time: 0 hr 1 min 16 sec) 
updateCurrDst(33468)
updateCurrDst(33490)
updateCurrDst(34265)
updateCurrDst(34272)
updateCurrDst(34561)
updateCurrDst(34617)
updateCurrDst(34730)
updateCurrDst(34795)
updateCurrDst(34943)
updateCurrDst(34980)
updateCurrDst(34989)
updateCurrDst(35053)
updateCurrDst(35102)
Heartbeat CPU 0 instructions: 26000002 cycles: 8382321 heartbeat IPC: 3.15761 cumulative IPC: 3.10177 (Simulation time: 0 hr 1 min 20 sec) 
updateCurrDst(35437)
updateCurrDst(35596)
updateCurrDst(35704)
updateCurrDst(35717)
updateCurrDst(35868)
updateCurrDst(35915)
updateCurrDst(35931)
updateCurrDst(36189)
updateCurrDst(36341)
updateCurrDst(36469)
updateCurrDst(36482)
updateCurrDst(36548)
updateCurrDst(36596)
updateCurrDst(36617)
updateCurrDst(36677)
updateCurrDst(36750)
Heartbeat CPU 0 instructions: 27000000 cycles: 8699146 heartbeat IPC: 3.15631 cumulative IPC: 3.10375 (Simulation time: 0 hr 1 min 23 sec) 
updateCurrDst(36945)
updateCurrDst(36967)
updateCurrDst(37223)
updateCurrDst(37322)
updateCurrDst(37401)
updateCurrDst(37410)
updateCurrDst(37691)
updateCurrDst(37983)
updateCurrDst(37992)
Heartbeat CPU 0 instructions: 28000000 cycles: 9016102 heartbeat IPC: 3.15501 cumulative IPC: 3.10555 (Simulation time: 0 hr 1 min 27 sec) 
updateCurrDst(38651)
updateCurrDst(38824)
updateCurrDst(38922)
updateCurrDst(38934)
updateCurrDst(38996)
updateCurrDst(39260)
updateCurrDst(39292)
updateCurrDst(39368)
updateCurrDst(39444)
updateCurrDst(39497)
updateCurrDst(39510)
updateCurrDst(39546)
updateCurrDst(39596)
updateCurrDst(39606)
updateCurrDst(39624)
updateCurrDst(39799)
updateCurrDst(39842)
updateCurrDst(39849)
updateCurrDst(39859)
updateCurrDst(40023)
updateCurrDst(40025)
updateCurrDst(40077)
updateCurrDst(40090)
updateCurrDst(40163)
updateCurrDst(40241)
Heartbeat CPU 0 instructions: 29000001 cycles: 9333090 heartbeat IPC: 3.1547 cumulative IPC: 3.10722 (Simulation time: 0 hr 1 min 30 sec) 
updateCurrDst(40458)
updateCurrDst(40665)
updateCurrDst(40713)
updateCurrDst(40835)
updateCurrDst(40900)
updateCurrDst(41196)
updateCurrDst(41282)
updateCurrDst(41361)
updateCurrDst(41395)
updateCurrDst(41450)
updateCurrDst(41547)
updateCurrDst(41774)
updateCurrDst(41783)
Heartbeat CPU 0 instructions: 30000001 cycles: 9650309 heartbeat IPC: 3.1524 cumulative IPC: 3.10871 (Simulation time: 0 hr 1 min 33 sec) 
updateCurrDst(42203)
updateCurrDst(42212)
updateCurrDst(42297)
updateCurrDst(42360)
updateCurrDst(42446)
updateCurrDst(42530)
updateCurrDst(42634)
updateCurrDst(42638)
updateCurrDst(42679)
updateCurrDst(43183)
updateCurrDst(43261)
updateCurrDst(43391)
updateCurrDst(43516)
updateCurrDst(43537)
updateCurrDst(43587)
updateCurrDst(43662)
updateCurrDst(43707)
updateCurrDst(43814)
Heartbeat CPU 0 instructions: 31000000 cycles: 9967434 heartbeat IPC: 3.15333 cumulative IPC: 3.11013 (Simulation time: 0 hr 1 min 36 sec) 
updateCurrDst(44028)
updateCurrDst(44055)
updateCurrDst(44094)
updateCurrDst(44196)
updateCurrDst(44211)
updateCurrDst(44284)
updateCurrDst(44459)
updateCurrDst(44581)
updateCurrDst(44752)
updateCurrDst(44905)
updateCurrDst(45026)
updateCurrDst(45164)
updateCurrDst(45259)
updateCurrDst(45353)
updateCurrDst(45568)
updateCurrDst(45590)
Heartbeat CPU 0 instructions: 32000001 cycles: 10284540 heartbeat IPC: 3.15352 cumulative IPC: 3.11147 (Simulation time: 0 hr 1 min 39 sec) 
updateCurrDst(45690)
updateCurrDst(45978)
updateCurrDst(46059)
updateCurrDst(46226)
updateCurrDst(46243)
updateCurrDst(46556)
updateCurrDst(46618)
updateCurrDst(46742)
updateCurrDst(46823)
updateCurrDst(46882)
updateCurrDst(46911)
updateCurrDst(47007)
updateCurrDst(47184)
updateCurrDst(47262)
Heartbeat CPU 0 instructions: 33000000 cycles: 10601312 heartbeat IPC: 3.15684 cumulative IPC: 3.11282 (Simulation time: 0 hr 1 min 42 sec) 
updateCurrDst(47414)
updateCurrDst(47418)
updateCurrDst(47476)
updateCurrDst(47524)
updateCurrDst(47532)
updateCurrDst(47533)
updateCurrDst(47751)
updateCurrDst(47965)
updateCurrDst(47980)
updateCurrDst(48211)
updateCurrDst(48396)
updateCurrDst(48498)
updateCurrDst(48588)
updateCurrDst(48596)
updateCurrDst(48758)
updateCurrDst(49018)
updateCurrDst(49020)
Heartbeat CPU 0 instructions: 34000000 cycles: 10918244 heartbeat IPC: 3.15525 cumulative IPC: 3.11405 (Simulation time: 0 hr 1 min 46 sec) 
updateCurrDst(49153)
updateCurrDst(49185)
updateCurrDst(49231)
updateCurrDst(49436)
updateCurrDst(49437)
updateCurrDst(49634)
updateCurrDst(49715)
updateCurrDst(49785)
updateCurrDst(50101)
updateCurrDst(50202)
updateCurrDst(50358)
updateCurrDst(50424)
updateCurrDst(50475)
updateCurrDst(50596)
updateCurrDst(50746)
Heartbeat CPU 0 instructions: 35000002 cycles: 11235560 heartbeat IPC: 3.15144 cumulative IPC: 3.11511 (Simulation time: 0 hr 1 min 51 sec) 
updateCurrDst(51270)
updateCurrDst(51271)
updateCurrDst(51321)
updateCurrDst(51540)
updateCurrDst(51564)
updateCurrDst(51633)
updateCurrDst(51787)
updateCurrDst(51887)
updateCurrDst(51905)
updateCurrDst(51957)
updateCurrDst(52039)
updateCurrDst(52160)
updateCurrDst(52193)
updateCurrDst(52256)
updateCurrDst(52295)
updateCurrDst(52478)
updateCurrDst(52512)
Heartbeat CPU 0 instructions: 36000000 cycles: 11552396 heartbeat IPC: 3.1562 cumulative IPC: 3.11624 (Simulation time: 0 hr 1 min 54 sec) 
updateCurrDst(52584)
updateCurrDst(52606)
updateCurrDst(52702)
updateCurrDst(52770)
updateCurrDst(52909)
updateCurrDst(53000)
updateCurrDst(53003)
updateCurrDst(53024)
updateCurrDst(53026)
updateCurrDst(53085)
updateCurrDst(53142)
updateCurrDst(53161)
updateCurrDst(53192)
updateCurrDst(53494)
updateCurrDst(53527)
updateCurrDst(53540)
updateCurrDst(53562)
updateCurrDst(53602)
updateCurrDst(53623)
updateCurrDst(53777)
updateCurrDst(53842)
updateCurrDst(53925)
updateCurrDst(53981)
updateCurrDst(54084)
updateCurrDst(54217)
Heartbeat CPU 0 instructions: 37000000 cycles: 11869350 heartbeat IPC: 3.15503 cumulative IPC: 3.11727 (Simulation time: 0 hr 1 min 59 sec) 
updateCurrDst(54392)
updateCurrDst(54462)
updateCurrDst(54764)
updateCurrDst(54791)
updateCurrDst(54960)
updateCurrDst(55282)
updateCurrDst(55356)
updateCurrDst(55510)
updateCurrDst(55677)
updateCurrDst(55772)
updateCurrDst(55773)
updateCurrDst(55793)
updateCurrDst(55874)
Heartbeat CPU 0 instructions: 38000001 cycles: 12186493 heartbeat IPC: 3.15315 cumulative IPC: 3.11821 (Simulation time: 0 hr 2 min 4 sec) 
updateCurrDst(56024)
updateCurrDst(56043)
updateCurrDst(56343)
updateCurrDst(56630)
updateCurrDst(56691)
updateCurrDst(56695)
updateCurrDst(56747)
updateCurrDst(56882)
updateCurrDst(57138)
updateCurrDst(57293)
updateCurrDst(57314)
updateCurrDst(57419)
updateCurrDst(57678)
updateCurrDst(57681)
updateCurrDst(57696)
updateCurrDst(57706)
updateCurrDst(57709)
updateCurrDst(57721)
Heartbeat CPU 0 instructions: 39000002 cycles: 12503454 heartbeat IPC: 3.15497 cumulative IPC: 3.11914 (Simulation time: 0 hr 2 min 7 sec) 
updateCurrDst(57736)
updateCurrDst(57834)
updateCurrDst(58407)
updateCurrDst(58458)
updateCurrDst(58537)
updateCurrDst(58751)
updateCurrDst(58848)
updateCurrDst(58918)
updateCurrDst(58939)
updateCurrDst(59028)
updateCurrDst(59266)
updateCurrDst(59341)
updateCurrDst(59455)
Heartbeat CPU 0 instructions: 40000003 cycles: 12820637 heartbeat IPC: 3.15276 cumulative IPC: 3.11997 (Simulation time: 0 hr 2 min 11 sec) 
updateCurrDst(59478)
updateCurrDst(59676)
updateCurrDst(59828)
updateCurrDst(59856)
updateCurrDst(60084)
updateCurrDst(60220)
updateCurrDst(60268)
updateCurrDst(60557)
updateCurrDst(60649)
updateCurrDst(60668)
updateCurrDst(60788)
updateCurrDst(60832)
updateCurrDst(60874)
updateCurrDst(60882)
updateCurrDst(61067)
updateCurrDst(61078)
Heartbeat CPU 0 instructions: 41000000 cycles: 13137679 heartbeat IPC: 3.15415 cumulative IPC: 3.12079 (Simulation time: 0 hr 2 min 14 sec) 
updateCurrDst(61284)
updateCurrDst(61364)
updateCurrDst(61468)
updateCurrDst(61546)
updateCurrDst(61560)
updateCurrDst(61589)
updateCurrDst(61610)
updateCurrDst(61624)
updateCurrDst(61738)
updateCurrDst(61800)
updateCurrDst(61845)
updateCurrDst(61941)
updateCurrDst(62118)
updateCurrDst(62125)
updateCurrDst(62155)
updateCurrDst(62288)
updateCurrDst(62303)
updateCurrDst(62431)
updateCurrDst(62497)
updateCurrDst(62579)
updateCurrDst(62595)
Heartbeat CPU 0 instructions: 42000001 cycles: 13454733 heartbeat IPC: 3.15404 cumulative IPC: 3.12158 (Simulation time: 0 hr 2 min 18 sec) 

Warmup complete CPU 0 instructions: 42000001 cycles: 13454733 (Simulation time: 0 hr 2 min 18 sec) 

updateCurrDst(63018)
updateCurrDst(63067)
updateCurrDst(63423)
updateCurrDst(63480)
updateCurrDst(63671)
updateCurrDst(63713)
updateCurrDst(63795)
updateCurrDst(63824)
updateCurrDst(63941)
updateCurrDst(64004)
updateCurrDst(64156)
updateCurrDst(64168)
updateCurrDst(64194)
updateCurrDst(64256)
updateCurrDst(64286)
updateCurrDst(64364)
updateCurrDst(64444)
updateCurrDst(64545)
updateCurrDst(64560)
updateCurrDst(64593)
updateCurrDst(64667)
Heartbeat CPU 0 instructions: 43000001 cycles: 16496407 heartbeat IPC: 0.328766 cumulative IPC: 0.328766 (Simulation time: 0 hr 2 min 22 sec) 
updateCurrDst(64839)
updateCurrDst(64952)
updateCurrDst(65181)
updateCurrDst(65286)
updateCurrDst(65389)
updateCurrDst(65391)
updateCurrDst(65474)
updateCurrDst(65490)
updateCurrDst(65549)
updateCurrDst(65615)
updateCurrDst(65701)
updateCurrDst(65777)
updateCurrDst(65854)
updateCurrDst(65959)
updateCurrDst(66167)
updateCurrDst(66289)
updateCurrDst(66309)
Heartbeat CPU 0 instructions: 44000000 cycles: 19527283 heartbeat IPC: 0.329937 cumulative IPC: 0.329351 (Simulation time: 0 hr 2 min 26 sec) 
updateCurrDst(66456)
updateCurrDst(66546)
updateCurrDst(66621)
updateCurrDst(66749)
updateCurrDst(66857)
updateCurrDst(67052)
updateCurrDst(67055)
updateCurrDst(67101)
updateCurrDst(67226)
updateCurrDst(67228)
updateCurrDst(67287)
updateCurrDst(67369)
updateCurrDst(67419)
updateCurrDst(67502)
updateCurrDst(67614)
updateCurrDst(67644)
updateCurrDst(67659)
updateCurrDst(67709)
updateCurrDst(67831)
updateCurrDst(67957)
updateCurrDst(68089)
updateCurrDst(68116)
updateCurrDst(68143)
Heartbeat CPU 0 instructions: 45000000 cycles: 22561745 heartbeat IPC: 0.329548 cumulative IPC: 0.329416 (Simulation time: 0 hr 2 min 30 sec) 
updateCurrDst(68379)
updateCurrDst(68445)
updateCurrDst(68805)
updateCurrDst(68862)
updateCurrDst(69107)
updateCurrDst(69149)
updateCurrDst(69236)
updateCurrDst(69297)
updateCurrDst(69401)
updateCurrDst(69679)
updateCurrDst(69734)
updateCurrDst(69833)
Heartbeat CPU 0 instructions: 46000003 cycles: 25601400 heartbeat IPC: 0.328986 cumulative IPC: 0.329309 (Simulation time: 0 hr 2 min 34 sec) 
updateCurrDst(70279)
updateCurrDst(70530)
updateCurrDst(70549)
updateCurrDst(70779)
updateCurrDst(70789)
updateCurrDst(71039)
updateCurrDst(71315)
updateCurrDst(71324)
updateCurrDst(71375)
updateCurrDst(71544)
updateCurrDst(71548)
Heartbeat CPU 0 instructions: 47000000 cycles: 28643880 heartbeat IPC: 0.328678 cumulative IPC: 0.329182 (Simulation time: 0 hr 2 min 39 sec) 
updateCurrDst(71824)
updateCurrDst(71877)
updateCurrDst(72313)
updateCurrDst(72331)
updateCurrDst(72337)
updateCurrDst(72385)
updateCurrDst(72431)
updateCurrDst(72608)
updateCurrDst(72715)
updateCurrDst(73052)
updateCurrDst(73165)
updateCurrDst(73218)
updateCurrDst(73318)
Heartbeat CPU 0 instructions: 48000002 cycles: 31686374 heartbeat IPC: 0.328678 cumulative IPC: 0.329098 (Simulation time: 0 hr 2 min 45 sec) 
updateCurrDst(73505)
updateCurrDst(73580)
updateCurrDst(73676)
updateCurrDst(73733)
updateCurrDst(74271)
updateCurrDst(74272)
updateCurrDst(74424)
updateCurrDst(74645)
updateCurrDst(74711)
updateCurrDst(74736)
updateCurrDst(74894)
updateCurrDst(74896)
updateCurrDst(74955)
updateCurrDst(74967)
updateCurrDst(74985)
updateCurrDst(75008)
updateCurrDst(75023)
updateCurrDst(75054)
Heartbeat CPU 0 instructions: 49000001 cycles: 34697877 heartbeat IPC: 0.33206 cumulative IPC: 0.329518 (Simulation time: 0 hr 2 min 48 sec) 
updateCurrDst(75226)
updateCurrDst(75395)
updateCurrDst(75679)
updateCurrDst(76014)
updateCurrDst(76081)
updateCurrDst(76101)
updateCurrDst(76143)
updateCurrDst(76384)
updateCurrDst(76393)
updateCurrDst(76424)
updateCurrDst(76465)
Heartbeat CPU 0 instructions: 50000000 cycles: 37694260 heartbeat IPC: 0.333735 cumulative IPC: 0.330039 (Simulation time: 0 hr 2 min 52 sec) 
updateCurrDst(76873)
updateCurrDst(77135)
updateCurrDst(77165)
updateCurrDst(77242)
updateCurrDst(77248)
updateCurrDst(77333)
updateCurrDst(77362)
updateCurrDst(77498)
updateCurrDst(77650)
updateCurrDst(77827)
updateCurrDst(77972)
updateCurrDst(78067)
updateCurrDst(78299)
updateCurrDst(78382)
Heartbeat CPU 0 instructions: 51000003 cycles: 40694949 heartbeat IPC: 0.333258 cumulative IPC: 0.330394 (Simulation time: 0 hr 2 min 56 sec) 
updateCurrDst(78662)
updateCurrDst(78734)
updateCurrDst(78759)
updateCurrDst(78952)
updateCurrDst(79098)
updateCurrDst(79108)
updateCurrDst(79129)
updateCurrDst(79141)
updateCurrDst(79148)
updateCurrDst(79181)
updateCurrDst(79196)
updateCurrDst(79590)
updateCurrDst(79630)
updateCurrDst(80154)
Heartbeat CPU 0 instructions: 52000002 cycles: 43697730 heartbeat IPC: 0.333024 cumulative IPC: 0.330655 (Simulation time: 0 hr 3 min 0 sec) 
updateCurrDst(80423)
updateCurrDst(80444)
updateCurrDst(80453)
updateCurrDst(80454)
updateCurrDst(80667)
updateCurrDst(80668)
updateCurrDst(80676)
updateCurrDst(80843)
updateCurrDst(81067)
updateCurrDst(81080)
updateCurrDst(81095)
updateCurrDst(81118)
updateCurrDst(81180)
updateCurrDst(81308)
updateCurrDst(81431)
updateCurrDst(81461)
updateCurrDst(81504)
updateCurrDst(81714)
updateCurrDst(81734)
updateCurrDst(81766)
updateCurrDst(81770)
updateCurrDst(81790)
updateCurrDst(81806)
updateCurrDst(81905)
updateCurrDst(81920)
Heartbeat CPU 0 instructions: 53000002 cycles: 46720474 heartbeat IPC: 0.330825 cumulative IPC: 0.330671 (Simulation time: 0 hr 3 min 3 sec) 
updateCurrDst(82027)
updateCurrDst(82042)
updateCurrDst(82291)
updateCurrDst(82444)
updateCurrDst(82693)
updateCurrDst(82706)
updateCurrDst(82710)
updateCurrDst(82771)
updateCurrDst(82958)
updateCurrDst(83011)
updateCurrDst(83035)
updateCurrDst(83108)
updateCurrDst(83119)
updateCurrDst(83175)
updateCurrDst(83233)
updateCurrDst(83286)
updateCurrDst(83569)
updateCurrDst(83582)
updateCurrDst(83592)
Heartbeat CPU 0 instructions: 54000003 cycles: 49706658 heartbeat IPC: 0.334876 cumulative IPC: 0.331017 (Simulation time: 0 hr 3 min 7 sec) 
updateCurrDst(83736)
updateCurrDst(83906)
updateCurrDst(83946)
updateCurrDst(84106)
updateCurrDst(84143)
updateCurrDst(84260)
updateCurrDst(84346)
updateCurrDst(84463)
updateCurrDst(84848)
updateCurrDst(84927)
updateCurrDst(84969)
updateCurrDst(85077)
Heartbeat CPU 0 instructions: 55000000 cycles: 52694713 heartbeat IPC: 0.334665 cumulative IPC: 0.331295 (Simulation time: 0 hr 3 min 10 sec) 
updateCurrDst(85512)
updateCurrDst(85534)
updateCurrDst(85591)
updateCurrDst(85732)
updateCurrDst(85773)
updateCurrDst(85789)
updateCurrDst(85860)
updateCurrDst(85915)
updateCurrDst(85916)
updateCurrDst(85959)
updateCurrDst(85966)
updateCurrDst(86053)
updateCurrDst(86057)
updateCurrDst(86124)
updateCurrDst(86352)
updateCurrDst(86370)
updateCurrDst(86511)
updateCurrDst(86680)
updateCurrDst(86733)
updateCurrDst(86869)
updateCurrDst(86933)
Heartbeat CPU 0 instructions: 56000001 cycles: 55680834 heartbeat IPC: 0.334883 cumulative IPC: 0.331548 (Simulation time: 0 hr 3 min 14 sec) 
updateCurrDst(87326)
updateCurrDst(87540)
updateCurrDst(87590)
updateCurrDst(87636)
updateCurrDst(87665)
updateCurrDst(87690)
updateCurrDst(87696)
updateCurrDst(87742)
updateCurrDst(88355)
updateCurrDst(88401)
updateCurrDst(88415)
updateCurrDst(88530)
updateCurrDst(88552)
updateCurrDst(88580)
updateCurrDst(88643)
updateCurrDst(88836)
Heartbeat CPU 0 instructions: 57000002 cycles: 58667725 heartbeat IPC: 0.334797 cumulative IPC: 0.331763 (Simulation time: 0 hr 3 min 17 sec) 
updateCurrDst(88957)
updateCurrDst(88966)
updateCurrDst(89011)
updateCurrDst(89271)
updateCurrDst(89377)
updateCurrDst(89425)
updateCurrDst(89692)
updateCurrDst(89802)
updateCurrDst(89872)
updateCurrDst(89925)
updateCurrDst(89930)
updateCurrDst(90237)
updateCurrDst(90388)
updateCurrDst(90456)
updateCurrDst(90597)
Heartbeat CPU 0 instructions: 58000000 cycles: 61652758 heartbeat IPC: 0.335004 cumulative IPC: 0.331964 (Simulation time: 0 hr 3 min 21 sec) 
updateCurrDst(90785)
updateCurrDst(90792)
updateCurrDst(90795)
updateCurrDst(90818)
updateCurrDst(90873)
updateCurrDst(90906)
updateCurrDst(90946)
updateCurrDst(90996)
updateCurrDst(91030)
updateCurrDst(91108)
updateCurrDst(91148)
updateCurrDst(91224)
updateCurrDst(91381)
updateCurrDst(91545)
updateCurrDst(91755)
updateCurrDst(91829)
updateCurrDst(91848)
updateCurrDst(92043)
updateCurrDst(92244)
updateCurrDst(92245)
updateCurrDst(92321)
updateCurrDst(92346)
updateCurrDst(92349)
updateCurrDst(92397)
Heartbeat CPU 0 instructions: 59000002 cycles: 64634872 heartbeat IPC: 0.335333 cumulative IPC: 0.33216 (Simulation time: 0 hr 3 min 25 sec) 
updateCurrDst(92435)
updateCurrDst(92649)
updateCurrDst(92656)
updateCurrDst(92899)
updateCurrDst(92987)
updateCurrDst(92996)
updateCurrDst(93025)
updateCurrDst(93065)
updateCurrDst(93096)
updateCurrDst(93199)
updateCurrDst(93232)
updateCurrDst(93287)
updateCurrDst(93303)
updateCurrDst(93401)
updateCurrDst(93414)
updateCurrDst(93531)
updateCurrDst(93844)
updateCurrDst(94033)
updateCurrDst(94072)
updateCurrDst(94140)
Heartbeat CPU 0 instructions: 60000001 cycles: 67620100 heartbeat IPC: 0.334982 cumulative IPC: 0.332316 (Simulation time: 0 hr 3 min 28 sec) 
updateCurrDst(94424)
updateCurrDst(94674)
updateCurrDst(94821)
updateCurrDst(95038)
updateCurrDst(95059)
updateCurrDst(95125)
updateCurrDst(95410)
updateCurrDst(95501)
updateCurrDst(95630)
updateCurrDst(95666)
updateCurrDst(95747)
updateCurrDst(95789)
updateCurrDst(95798)
updateCurrDst(95859)
Heartbeat CPU 0 instructions: 61000000 cycles: 70605631 heartbeat IPC: 0.334948 cumulative IPC: 0.332453 (Simulation time: 0 hr 3 min 32 sec) 
updateCurrDst(96018)
updateCurrDst(96201)
updateCurrDst(96216)
updateCurrDst(96235)
updateCurrDst(96391)
updateCurrDst(96432)
updateCurrDst(96541)
updateCurrDst(96593)
updateCurrDst(96891)
updateCurrDst(96966)
updateCurrDst(97081)
updateCurrDst(97170)
updateCurrDst(97271)
updateCurrDst(97274)
updateCurrDst(97454)
updateCurrDst(97485)
updateCurrDst(97494)
updateCurrDst(97513)
updateCurrDst(97532)
updateCurrDst(97575)
Heartbeat CPU 0 instructions: 62000000 cycles: 73589746 heartbeat IPC: 0.335108 cumulative IPC: 0.332585 (Simulation time: 0 hr 3 min 35 sec) 
updateCurrDst(97867)
updateCurrDst(98054)
updateCurrDst(98223)
updateCurrDst(98286)
updateCurrDst(98354)
updateCurrDst(98412)
updateCurrDst(98427)
updateCurrDst(98569)
updateCurrDst(98634)
updateCurrDst(98954)
updateCurrDst(99031)
updateCurrDst(99261)
Heartbeat CPU 0 instructions: 63000003 cycles: 76573053 heartbeat IPC: 0.3352 cumulative IPC: 0.332709 (Simulation time: 0 hr 3 min 39 sec) 
updateCurrDst(99391)
updateCurrDst(99613)
updateCurrDst(99646)
updateCurrDst(99823)
updateCurrDst(99825)
updateCurrDst(99900)
updateCurrDst(99912)
updateCurrDst(100114)
updateCurrDst(100295)
updateCurrDst(100306)
updateCurrDst(100355)
updateCurrDst(100408)
updateCurrDst(100494)
updateCurrDst(100618)
updateCurrDst(100908)
updateCurrDst(100987)
updateCurrDst(101057)
Heartbeat CPU 0 instructions: 64000001 cycles: 79558710 heartbeat IPC: 0.334934 cumulative IPC: 0.332809 (Simulation time: 0 hr 3 min 42 sec) 
updateCurrDst(101133)
updateCurrDst(101215)
updateCurrDst(101304)
updateCurrDst(101433)
updateCurrDst(101518)
updateCurrDst(101688)
updateCurrDst(101822)
updateCurrDst(101929)
updateCurrDst(102033)
updateCurrDst(102100)
updateCurrDst(102227)
updateCurrDst(102282)
updateCurrDst(102616)
updateCurrDst(102640)
updateCurrDst(102757)
Heartbeat CPU 0 instructions: 65000002 cycles: 82544120 heartbeat IPC: 0.334963 cumulative IPC: 0.332902 (Simulation time: 0 hr 3 min 46 sec) 
updateCurrDst(102912)
updateCurrDst(103004)
updateCurrDst(103167)
updateCurrDst(103203)
updateCurrDst(103347)
updateCurrDst(103571)
updateCurrDst(103628)
updateCurrDst(103719)
updateCurrDst(103939)
updateCurrDst(103954)
updateCurrDst(103982)
updateCurrDst(103984)
updateCurrDst(104067)
updateCurrDst(104072)
updateCurrDst(104185)
updateCurrDst(104311)
updateCurrDst(104370)
updateCurrDst(104451)
Heartbeat CPU 0 instructions: 66000000 cycles: 85527003 heartbeat IPC: 0.335245 cumulative IPC: 0.332999 (Simulation time: 0 hr 3 min 49 sec) 
updateCurrDst(105134)
updateCurrDst(105188)
updateCurrDst(105332)
updateCurrDst(105369)
updateCurrDst(105741)
updateCurrDst(105756)
updateCurrDst(105927)
updateCurrDst(106069)
Heartbeat CPU 0 instructions: 67000000 cycles: 88512832 heartbeat IPC: 0.334915 cumulative IPC: 0.333075 (Simulation time: 0 hr 3 min 53 sec) 
updateCurrDst(106374)
updateCurrDst(106411)
updateCurrDst(106801)
updateCurrDst(106920)
updateCurrDst(107006)
updateCurrDst(107115)
updateCurrDst(107202)
updateCurrDst(107353)
updateCurrDst(107368)
updateCurrDst(107378)
updateCurrDst(107416)
updateCurrDst(107687)
updateCurrDst(107745)
updateCurrDst(107881)
Heartbeat CPU 0 instructions: 68000000 cycles: 91497554 heartbeat IPC: 0.33504 cumulative IPC: 0.33315 (Simulation time: 0 hr 3 min 56 sec) 
updateCurrDst(108132)
updateCurrDst(108272)
updateCurrDst(108372)
updateCurrDst(108444)
updateCurrDst(108499)
updateCurrDst(108549)
updateCurrDst(108580)
updateCurrDst(108617)
updateCurrDst(108632)
updateCurrDst(108735)
updateCurrDst(108831)
updateCurrDst(108993)
updateCurrDst(109042)
updateCurrDst(109049)
updateCurrDst(109061)
updateCurrDst(109125)
updateCurrDst(109211)
updateCurrDst(109232)
updateCurrDst(109276)
updateCurrDst(109297)
updateCurrDst(109317)
updateCurrDst(109420)
updateCurrDst(109426)
updateCurrDst(109566)
updateCurrDst(109589)
Heartbeat CPU 0 instructions: 69000000 cycles: 94482101 heartbeat IPC: 0.335059 cumulative IPC: 0.333221 (Simulation time: 0 hr 4 min 0 sec) 
updateCurrDst(110167)
updateCurrDst(110331)
updateCurrDst(110349)
updateCurrDst(110405)
updateCurrDst(110452)
updateCurrDst(110573)
updateCurrDst(110633)
updateCurrDst(110723)
updateCurrDst(110772)
updateCurrDst(110832)
updateCurrDst(110859)
updateCurrDst(111405)
updateCurrDst(111501)
Heartbeat CPU 0 instructions: 70000000 cycles: 97467068 heartbeat IPC: 0.335012 cumulative IPC: 0.333284 (Simulation time: 0 hr 4 min 3 sec) 
updateCurrDst(111647)
updateCurrDst(111666)
updateCurrDst(111685)
updateCurrDst(112140)
updateCurrDst(112146)
updateCurrDst(112198)
updateCurrDst(112234)
updateCurrDst(112284)
updateCurrDst(112982)
updateCurrDst(113102)
Heartbeat CPU 0 instructions: 71000000 cycles: 100455007 heartbeat IPC: 0.334679 cumulative IPC: 0.333332 (Simulation time: 0 hr 4 min 7 sec) 
updateCurrDst(113859)
updateCurrDst(113906)
updateCurrDst(113915)
updateCurrDst(113970)
updateCurrDst(113985)
updateCurrDst(114318)
updateCurrDst(114368)
updateCurrDst(114691)
updateCurrDst(114765)
updateCurrDst(114827)
updateCurrDst(114828)
updateCurrDst(114862)
updateCurrDst(114869)
updateCurrDst(114872)
updateCurrDst(114904)
updateCurrDst(114954)
Heartbeat CPU 0 instructions: 72000001 cycles: 103441127 heartbeat IPC: 0.334883 cumulative IPC: 0.333384 (Simulation time: 0 hr 4 min 10 sec) 
updateCurrDst(115177)
updateCurrDst(115360)
updateCurrDst(115391)
updateCurrDst(115440)
updateCurrDst(115525)
updateCurrDst(115726)
updateCurrDst(115831)
updateCurrDst(115839)
updateCurrDst(115850)
updateCurrDst(116006)
updateCurrDst(116123)
updateCurrDst(116460)
updateCurrDst(116633)
updateCurrDst(116698)
Heartbeat CPU 0 instructions: 73000001 cycles: 106424172 heartbeat IPC: 0.335228 cumulative IPC: 0.333443 (Simulation time: 0 hr 4 min 14 sec) 
updateCurrDst(116744)
updateCurrDst(116779)
updateCurrDst(116832)
updateCurrDst(116834)
updateCurrDst(117016)
updateCurrDst(117043)
updateCurrDst(117114)
updateCurrDst(117211)
updateCurrDst(117345)
updateCurrDst(117388)
updateCurrDst(117511)
updateCurrDst(117700)
updateCurrDst(117710)
updateCurrDst(117743)
updateCurrDst(117950)
updateCurrDst(118092)
updateCurrDst(118174)
updateCurrDst(118210)
updateCurrDst(118226)
updateCurrDst(118348)
Heartbeat CPU 0 instructions: 74000001 cycles: 109408642 heartbeat IPC: 0.335068 cumulative IPC: 0.333493 (Simulation time: 0 hr 4 min 19 sec) 
updateCurrDst(118458)
updateCurrDst(118744)
updateCurrDst(118876)
updateCurrDst(118959)
updateCurrDst(118996)
updateCurrDst(119224)
updateCurrDst(119315)
updateCurrDst(119327)
updateCurrDst(119559)
updateCurrDst(119563)
updateCurrDst(119622)
updateCurrDst(119744)
updateCurrDst(119749)
updateCurrDst(119875)
updateCurrDst(120016)
updateCurrDst(120122)
Heartbeat CPU 0 instructions: 75000000 cycles: 112394520 heartbeat IPC: 0.33491 cumulative IPC: 0.333536 (Simulation time: 0 hr 4 min 24 sec) 
updateCurrDst(120252)
updateCurrDst(120270)
updateCurrDst(120369)
updateCurrDst(120418)
updateCurrDst(120542)
updateCurrDst(120883)
updateCurrDst(120948)
updateCurrDst(120988)
updateCurrDst(121009)
updateCurrDst(121030)
updateCurrDst(121100)
updateCurrDst(121310)
updateCurrDst(121402)
updateCurrDst(121441)
updateCurrDst(121511)
updateCurrDst(121599)
updateCurrDst(121729)
updateCurrDst(121747)
updateCurrDst(121800)
Heartbeat CPU 0 instructions: 76000000 cycles: 115377836 heartbeat IPC: 0.335197 cumulative IPC: 0.333585 (Simulation time: 0 hr 4 min 28 sec) 
updateCurrDst(121980)
updateCurrDst(122028)
updateCurrDst(122161)
updateCurrDst(122221)
updateCurrDst(122241)
updateCurrDst(122312)
updateCurrDst(122318)
updateCurrDst(122371)
updateCurrDst(122483)
updateCurrDst(122621)
updateCurrDst(122651)
updateCurrDst(123001)
updateCurrDst(123152)
updateCurrDst(123169)
updateCurrDst(123170)
updateCurrDst(123444)
updateCurrDst(123446)
updateCurrDst(123500)
updateCurrDst(123608)
Heartbeat CPU 0 instructions: 77000000 cycles: 118363418 heartbeat IPC: 0.334943 cumulative IPC: 0.333623 (Simulation time: 0 hr 4 min 32 sec) 
updateCurrDst(123694)
updateCurrDst(123865)
updateCurrDst(123929)
updateCurrDst(123938)
updateCurrDst(123940)
updateCurrDst(123945)
updateCurrDst(124021)
updateCurrDst(124038)
updateCurrDst(124067)
updateCurrDst(124336)
updateCurrDst(124415)
updateCurrDst(124607)
updateCurrDst(124707)
updateCurrDst(124776)
updateCurrDst(124793)
updateCurrDst(124924)
updateCurrDst(124947)
updateCurrDst(125211)
updateCurrDst(125217)
Heartbeat CPU 0 instructions: 78000000 cycles: 121348834 heartbeat IPC: 0.334962 cumulative IPC: 0.33366 (Simulation time: 0 hr 4 min 35 sec) 
updateCurrDst(125603)
updateCurrDst(125653)
updateCurrDst(125803)
updateCurrDst(125822)
updateCurrDst(125853)
updateCurrDst(125978)
updateCurrDst(126328)
updateCurrDst(126332)
updateCurrDst(126367)
updateCurrDst(126405)
updateCurrDst(126511)
updateCurrDst(126666)
updateCurrDst(126878)
updateCurrDst(126881)
updateCurrDst(126886)
updateCurrDst(126985)
updateCurrDst(127017)
updateCurrDst(127060)
Heartbeat CPU 0 instructions: 79000001 cycles: 124336591 heartbeat IPC: 0.3347 cumulative IPC: 0.333688 (Simulation time: 0 hr 4 min 39 sec) 
updateCurrDst(127126)
updateCurrDst(127295)
updateCurrDst(127299)
updateCurrDst(127388)
updateCurrDst(127511)
updateCurrDst(127554)
updateCurrDst(127581)
updateCurrDst(127866)
updateCurrDst(127963)
updateCurrDst(127966)
updateCurrDst(128215)
updateCurrDst(128288)
updateCurrDst(128452)
updateCurrDst(128670)
updateCurrDst(128705)
updateCurrDst(128749)
Heartbeat CPU 0 instructions: 80000001 cycles: 127322414 heartbeat IPC: 0.334916 cumulative IPC: 0.333721 (Simulation time: 0 hr 4 min 42 sec) 
updateCurrDst(128843)
updateCurrDst(128873)
updateCurrDst(128934)
updateCurrDst(128961)
updateCurrDst(128996)
updateCurrDst(129011)
updateCurrDst(129094)
updateCurrDst(129514)
updateCurrDst(129709)
updateCurrDst(129905)
updateCurrDst(129934)
updateCurrDst(129940)
updateCurrDst(129993)
updateCurrDst(130144)
updateCurrDst(130231)
updateCurrDst(130264)
updateCurrDst(130284)
updateCurrDst(130311)
updateCurrDst(130325)
updateCurrDst(130404)
Heartbeat CPU 0 instructions: 81000001 cycles: 130307577 heartbeat IPC: 0.33499 cumulative IPC: 0.333753 (Simulation time: 0 hr 4 min 46 sec) 
updateCurrDst(130654)
updateCurrDst(130676)
updateCurrDst(130698)
updateCurrDst(130717)
updateCurrDst(130730)
updateCurrDst(130753)
updateCurrDst(130784)
updateCurrDst(130805)
updateCurrDst(130987)
updateCurrDst(131027)
updateCurrDst(131039)
*** Reached end of trace for Core: 0 Repeating trace: ./tracer/pull_u17_k4.xzafter: 81294807
Heartbeat CPU 0 instructions: 82000002 cycles: 133461162 heartbeat IPC: 0.3171 cumulative IPC: 0.333315 (Simulation time: 0 hr 4 min 52 sec) 
Heartbeat CPU 0 instructions: 83000001 cycles: 136680509 heartbeat IPC: 0.310622 cumulative IPC: 0.332723 (Simulation time: 0 hr 4 min 58 sec) 
Heartbeat CPU 0 instructions: 84000000 cycles: 139531266 heartbeat IPC: 0.350784 cumulative IPC: 0.333131 (Simulation time: 0 hr 5 min 3 sec) 
Finished CPU 0 instructions: 42000000 cycles: 126076550 cumulative IPC: 0.333131 (Simulation time: 0 hr 5 min 3 sec) 

ChampSim completed all CPUs

Region of Interest Statistics

CPU 0 cumulative IPC: 0.333131 instructions: 42000000 cycles: 126076550

Total ROB STALLS:                   15580580
STLB MISS ROB STALLS:                    752
L1D  LOAD MISS ROB STALLS:            555501  Translation MISS ROB STALLS:             0
L2C  LOAD MISS ROB STALLS:            144065  Translation MISS ROB STALLS:             0
LLC  LOAD MISS ROB STALLS:             42365  Translation MISS ROB STALLS:             0

ITLB TOTAL     ACCESS:           6075904  HIT:    6075877  MISS:         27  HIT %:    99.9996  MISS %: 0.000444378   MPKI: 0.000642857
ITLB LOAD TRANSLATION ACCESS:    6075904  HIT:    6075877  MISS:         27  HIT %:    99.9996  MISS %: 0.000444378   MPKI: 0.000642857
ITLB AVERAGE MISS LATENCY:       247.333 cycles
ITLB RQ ACCESS:     6559961	FORWARD:           0	MERGED:       484056	TO_CACHE:    6075905

DTLB TOTAL     ACCESS:          12555055  HIT:   12259625  MISS:     295430  HIT %:    97.6469  MISS %:    2.35308   MPKI: 7.03405
DTLB LOAD TRANSLATION ACCESS:   12555055  HIT:   12259625  MISS:     295430  HIT %:    97.6469  MISS %:    2.35308   MPKI: 7.03405
DTLB AVERAGE MISS LATENCY:       9.58042 cycles
DTLB RQ ACCESS:    17593435	FORWARD:           0	MERGED:      5038373	TO_CACHE:   12555062

STLB TOTAL     ACCESS:            295457  HIT:     294658  MISS:        799  HIT %:    99.7296  MISS %:   0.270429   MPKI: 0.0190238
STLB LOAD TRANSLATION ACCESS:     295457  HIT:     294658  MISS:        799  HIT %:    99.7296  MISS %:   0.270429   MPKI: 0.0190238
STLB AVERAGE MISS LATENCY:       222.663 cycles
STLB RQ ACCESS:      295457	FORWARD:           0	MERGED:            0	TO_CACHE:     295457

PSCL5 TOTAL     ACCESS:               799  HIT:        799  MISS:          0  HIT %:        100  MISS %:          0   MPKI: 0
PSCL5 LOAD TRANSLATION ACCESS:        799  HIT:        799  MISS:          0  HIT %:        100  MISS %:          0   MPKI: 0

PSCL4 TOTAL     ACCESS:               799  HIT:        799  MISS:          0  HIT %:        100  MISS %:          0   MPKI: 0
PSCL4 LOAD TRANSLATION ACCESS:        799  HIT:        799  MISS:          0  HIT %:        100  MISS %:          0   MPKI: 0

PSCL3 TOTAL     ACCESS:               799  HIT:        799  MISS:          0  HIT %:        100  MISS %:          0   MPKI: 0
PSCL3 LOAD TRANSLATION ACCESS:        799  HIT:        799  MISS:          0  HIT %:        100  MISS %:          0   MPKI: 0

PSCL2 TOTAL     ACCESS:               799  HIT:        798  MISS:          1  HIT %:    99.8748  MISS %:   0.125156   MPKI: 2.38095e-05
PSCL2 LOAD TRANSLATION ACCESS:        799  HIT:        798  MISS:          1  HIT %:    99.8748  MISS %:   0.125156   MPKI: 2.38095e-05

L1D TOTAL     ACCESS:          17585719  HIT:   17019895  MISS:     565824  HIT %:    96.7825  MISS %:    3.21752   MPKI: 13.472  USED:      99285  UNUSED:     466539
L1D LOAD      ACCESS:           8046451  HIT:    7490899  MISS:     555552  HIT %:    93.0957  MISS %:    6.90431   MPKI: 13.2274  USED:      99265  UNUSED:     456671
L1D RFO       ACCESS:           9539268  HIT:    9528996  MISS:      10272  HIT %:    99.8923  MISS %:   0.107681   MPKI: 0.244571
L1D PTL1 TRANSLATION ACCESS:          0  HIT:          0  MISS:          0  HIT %:       -nan  MISS %:       -nan   MPKI: 0
L1D PTL2 TRANSLATION ACCESS:          0  HIT:          0  MISS:          0  HIT %:       -nan  MISS %:       -nan   MPKI: 0
L1D PTL3 TRANSLATION ACCESS:          0  HIT:          0  MISS:          0  HIT %:       -nan  MISS %:       -nan   MPKI: 0
L1D PTL4 TRANSLATION ACCESS:          0  HIT:          0  MISS:          0  HIT %:       -nan  MISS %:       -nan   MPKI: 0
L1D PTL5 TRANSLATION ACCESS:          0  HIT:          0  MISS:          0  HIT %:       -nan  MISS %:       -nan   MPKI: 0
L1D TOTAL EVICTIONS:             565824  TRANSLATION EVICTIONS:          0  TRANSLATION EVICTING TRANSALTION:          0  TRANSLATION EVICTING LOAD:          0  LOAD EVICTING TRANSALTION:          0  LOAD EVICTING LOAD:      555081
L1D AVERAGE MISS LATENCY:        30.587 cycles  AVERAGE LOAD MISS LATENCY:       29.2915 cycles  AVERAGE LOAD TRANSLATION MISS LATENCY:          -nan cycles
L1D RQ ACCESS:    10746080	FORWARD:           0	MERGED:      1702714	TO_CACHE:    8046466
L1D WQ ACCESS:     9548614	FORWARD:      996900	MERGED:         1645	TO_CACHE:    9546969

L1I TOTAL     ACCESS:           6559952  HIT:    6559809  MISS:        143  HIT %:    99.9978  MISS %: 0.00217989   MPKI: 0.00340476
L1I LOAD      ACCESS:           6559952  HIT:    6559809  MISS:        143  HIT %:    99.9978  MISS %: 0.00217989   MPKI: 0.00340476
L1I AVERAGE MISS LATENCY:       194.734 cycles
L1I RQ ACCESS:    10149970	FORWARD:           0	MERGED:      3590009	TO_CACHE:    6559961

L2C TOTAL     ACCESS:            580170  HIT:     425630  MISS:     154540  HIT %:     73.363  MISS %:     26.637   MPKI: 3.67952  USED:      77109  UNUSED:      77431
L2C LOAD      ACCESS:            555695  HIT:     411434  MISS:     144261  HIT %:    74.0395  MISS %:    25.9605   MPKI: 3.43479  USED:      77109  UNUSED:      71312
L2C RFO       ACCESS:             10272  HIT:          0  MISS:      10272  HIT %:          0  MISS %:        100   MPKI: 0.244571
L2C WRITEBACK ACCESS:             14203  HIT:      14196  MISS:          7  HIT %:    99.9507  MISS %:  0.0492854   MPKI: 0.000166667
L2C PTL1 TRANSLATION ACCESS:          0  HIT:          0  MISS:          0  HIT %:       -nan  MISS %:       -nan   MPKI: 0
L2C PTL2 TRANSLATION ACCESS:          0  HIT:          0  MISS:          0  HIT %:       -nan  MISS %:       -nan   MPKI: 0
L2C PTL3 TRANSLATION ACCESS:          0  HIT:          0  MISS:          0  HIT %:       -nan  MISS %:       -nan   MPKI: 0
L2C PTL4 TRANSLATION ACCESS:          0  HIT:          0  MISS:          0  HIT %:       -nan  MISS %:       -nan   MPKI: 0
L2C PTL5 TRANSLATION ACCESS:          0  HIT:          0  MISS:          0  HIT %:       -nan  MISS %:       -nan   MPKI: 0
L2C TOTAL EVICTIONS:             154540  TRANSLATION EVICTIONS:          0  TRANSLATION EVICTING TRANSALTION:          0  TRANSLATION EVICTING LOAD:          0  LOAD EVICTING TRANSALTION:          0  LOAD EVICTING LOAD:      141454
L2C AVERAGE MISS LATENCY:       57.2366 cycles  AVERAGE LOAD MISS LATENCY:       55.2159 cycles  AVERAGE LOAD TRANSLATION MISS LATENCY:          -nan cycles
L2C RQ ACCESS:      565967	FORWARD:           0	MERGED:            0	TO_CACHE:     565967
L2C WQ ACCESS:       14203	FORWARD:           0	MERGED:            0	TO_CACHE:      14203

LLC TOTAL     ACCESS:            165062  HIT:     109947  MISS:      55115  HIT %:    66.6095  MISS %:    33.3905   MPKI: 1.31226  USED:          0  UNUSED:          0
LLC LOAD      ACCESS:            144261  HIT:     101730  MISS:      42531  HIT %:     70.518  MISS %:     29.482   MPKI: 1.01264  USED:          0  UNUSED:          0
LLC RFO       ACCESS:             10272  HIT:       3728  MISS:       6544  HIT %:    36.2928  MISS %:    63.7072   MPKI: 0.15581
LLC WRITEBACK ACCESS:             10529  HIT:       4489  MISS:       6040  HIT %:    42.6346  MISS %:    57.3654   MPKI: 0.14381
LLC PTL1 TRANSLATION ACCESS:          0  HIT:          0  MISS:          0  HIT %:       -nan  MISS %:       -nan   MPKI: 0
LLC PTL2 TRANSLATION ACCESS:          0  HIT:          0  MISS:          0  HIT %:       -nan  MISS %:       -nan   MPKI: 0
LLC PTL3 TRANSLATION ACCESS:          0  HIT:          0  MISS:          0  HIT %:       -nan  MISS %:       -nan   MPKI: 0
LLC PTL4 TRANSLATION ACCESS:          0  HIT:          0  MISS:          0  HIT %:       -nan  MISS %:       -nan   MPKI: 0
LLC PTL5 TRANSLATION ACCESS:          0  HIT:          0  MISS:          0  HIT %:       -nan  MISS %:       -nan   MPKI: 0
LLC TOTAL EVICTIONS:                  0  TRANSLATION EVICTIONS:          0  TRANSLATION EVICTING TRANSALTION:          0  TRANSLATION EVICTING LOAD:          0  LOAD EVICTING TRANSALTION:          0  LOAD EVICTING LOAD:           0
LLC AVERAGE MISS LATENCY:       76.3678 cycles  AVERAGE LOAD MISS LATENCY:       85.5219 cycles  AVERAGE LOAD TRANSLATION MISS LATENCY:          -nan cycles
LLC RQ ACCESS:      154533	FORWARD:           0	MERGED:            0	TO_CACHE:     154533
LLC WQ ACCESS:       10529	FORWARD:           0	MERGED:            0	TO_CACHE:      10529


RAW hits: 7153334
Loads Generated: 17899414
Loads sent to L1D: 10746080
Stores Generated: 9548610
Stores sent to L1D: 9548614
Major fault: 0 Minor fault: 1921
Allocated PAGES: 1921
IRREG DATA L1D ACCESS: 1048532
L2C ACCESSES: 959609
L2C MISSES: 171308
Total LLC accesses: 304849
Total Irreg accesses: 171314

DRAM Statistics
 CHANNEL 0
 RQ ROW_BUFFER_HIT:      41379  ROW_BUFFER_MISS:       8495
 DBUS_CONGESTED:          0
 WQ ROW_BUFFER_HIT:       3039  ROW_BUFFER_MISS:       2025  FULL:          0

 AVG_CONGESTED_CYCLE: -

CPU 0 Branch Prediction Accuracy: 98.6789% MPKI: 1.62429 Average ROB Occupancy at Mispredict: 17.317
Branch types
NOT_BRANCH: 36836286 87.7054%
BRANCH_DIRECT_JUMP: 0 0%
BRANCH_INDIRECT: 694812 1.65431%
BRANCH_CONDITIONAL: 0 0%
BRANCH_DIRECT_CALL: 68121 0.162193%
BRANCH_INDIRECT_CALL: 1716212 4.08622%
BRANCH_RETURN: 1784334 4.24841%
BRANCH_OTHER: 900237 2.14342%

DRAM PAGES: 1048576
Allocated PAGES: 1921
