
*** ChampSim Multicore Out-of-Order Simulator ***

Warmup Instructions: 42000000
Simulation Instructions: 42000000
Number of CPUs: 1
LLC sets: 2048
LLC ways: 16
Off-chip DRAM Size: 4096 MB Channels: 1 Width: 64-bit Data Rate: 6400 MT/s
CPU 0 runs ./tracer/pull_u17_k4.xz
.xz
BTB has LRU replacement policy
ITLB has LRU replacement policy
DTLB has LRU replacement policy
STLB has LRU replacement policy
L1I has LRU replacement policy
L1D has LRU replacement policy
L2C has LRU replacement policy
Initialize DRRIP state for LLC
Heartbeat CPU 0 instructions: 1000001 cycles: 346727 heartbeat IPC: 2.88412 cumulative IPC: 2.88412 (Simulation time: 0 hr 0 min 3 sec) 
Heartbeat CPU 0 instructions: 2000000 cycles: 693435 heartbeat IPC: 2.88427 cumulative IPC: 2.88419 (Simulation time: 0 hr 0 min 5 sec) 
Heartbeat CPU 0 instructions: 3000002 cycles: 1040145 heartbeat IPC: 2.88426 cumulative IPC: 2.88422 (Simulation time: 0 hr 0 min 8 sec) 
PIN_registerGraphs(random_u17_k4.sg,1)
Graphh Number of Nodes: 131072
Heartbeat CPU 0 instructions: 4000002 cycles: 1381288 heartbeat IPC: 2.93132 cumulative IPC: 2.89585 (Simulation time: 0 hr 0 min 10 sec) 
Heartbeat CPU 0 instructions: 5000001 cycles: 1714552 heartbeat IPC: 3.00062 cumulative IPC: 2.91621 (Simulation time: 0 hr 0 min 11 sec) 
PIN_updateRegBaseBound( 94494678814928, 94494679339216)
updateCurrDst(69)
updateCurrDst(103)
updateCurrDst(243)
updateCurrDst(320)
updateCurrDst(338)
updateCurrDst(526)
updateCurrDst(577)
Heartbeat CPU 0 instructions: 6000001 cycles: 2042519 heartbeat IPC: 3.04909 cumulative IPC: 2.93755 (Simulation time: 0 hr 0 min 13 sec) 
updateCurrDst(651)
updateCurrDst(727)
updateCurrDst(833)
updateCurrDst(874)
updateCurrDst(913)
updateCurrDst(966)
updateCurrDst(986)
updateCurrDst(1010)
updateCurrDst(1055)
updateCurrDst(1150)
updateCurrDst(1186)
updateCurrDst(1431)
updateCurrDst(1601)
updateCurrDst(1607)
updateCurrDst(1841)
updateCurrDst(2033)
updateCurrDst(2062)
updateCurrDst(2249)
updateCurrDst(2262)
Heartbeat CPU 0 instructions: 7000001 cycles: 2359626 heartbeat IPC: 3.15351 cumulative IPC: 2.96657 (Simulation time: 0 hr 0 min 16 sec) 
updateCurrDst(2575)
updateCurrDst(2594)
updateCurrDst(2765)
updateCurrDst(2829)
updateCurrDst(2878)
updateCurrDst(2912)
updateCurrDst(2944)
updateCurrDst(2986)
updateCurrDst(3203)
updateCurrDst(3455)
updateCurrDst(3499)
updateCurrDst(3958)
Heartbeat CPU 0 instructions: 8000003 cycles: 2676345 heartbeat IPC: 3.15738 cumulative IPC: 2.98915 (Simulation time: 0 hr 0 min 19 sec) 
updateCurrDst(4081)
updateCurrDst(4150)
updateCurrDst(4155)
updateCurrDst(4315)
updateCurrDst(4389)
updateCurrDst(4478)
updateCurrDst(4530)
updateCurrDst(4691)
updateCurrDst(4712)
updateCurrDst(4790)
updateCurrDst(4879)
updateCurrDst(5018)
updateCurrDst(5098)
updateCurrDst(5145)
updateCurrDst(5271)
updateCurrDst(5548)
updateCurrDst(5566)
updateCurrDst(5569)
updateCurrDst(5606)
updateCurrDst(5644)
Heartbeat CPU 0 instructions: 9000002 cycles: 2993428 heartbeat IPC: 3.15375 cumulative IPC: 3.00659 (Simulation time: 0 hr 0 min 22 sec) 
updateCurrDst(5977)
updateCurrDst(6107)
updateCurrDst(6274)
updateCurrDst(6346)
updateCurrDst(6393)
updateCurrDst(6402)
updateCurrDst(6412)
updateCurrDst(6544)
updateCurrDst(6571)
updateCurrDst(6588)
updateCurrDst(6615)
updateCurrDst(6869)
updateCurrDst(6911)
updateCurrDst(6949)
updateCurrDst(7010)
updateCurrDst(7043)
updateCurrDst(7095)
updateCurrDst(7335)
updateCurrDst(7450)
Heartbeat CPU 0 instructions: 10000003 cycles: 3310750 heartbeat IPC: 3.15138 cumulative IPC: 3.02046 (Simulation time: 0 hr 0 min 25 sec) 
updateCurrDst(7542)
updateCurrDst(7684)
updateCurrDst(8016)
updateCurrDst(8055)
updateCurrDst(8341)
updateCurrDst(8355)
updateCurrDst(8362)
updateCurrDst(8466)
updateCurrDst(8482)
updateCurrDst(8497)
updateCurrDst(8503)
updateCurrDst(8542)
updateCurrDst(8579)
updateCurrDst(8619)
updateCurrDst(8894)
updateCurrDst(8898)
updateCurrDst(9142)
updateCurrDst(9213)
Heartbeat CPU 0 instructions: 11000000 cycles: 3627745 heartbeat IPC: 3.15461 cumulative IPC: 3.03219 (Simulation time: 0 hr 0 min 28 sec) 
updateCurrDst(9289)
updateCurrDst(9320)
updateCurrDst(9400)
updateCurrDst(9419)
updateCurrDst(9586)
updateCurrDst(9941)
updateCurrDst(10228)
updateCurrDst(10818)
updateCurrDst(10918)
Heartbeat CPU 0 instructions: 12000001 cycles: 3944842 heartbeat IPC: 3.15361 cumulative IPC: 3.04195 (Simulation time: 0 hr 0 min 31 sec) 
updateCurrDst(11000)
updateCurrDst(11358)
updateCurrDst(11374)
updateCurrDst(11448)
updateCurrDst(11458)
updateCurrDst(11691)
updateCurrDst(11764)
updateCurrDst(11805)
updateCurrDst(12122)
updateCurrDst(12187)
updateCurrDst(12380)
updateCurrDst(12381)
updateCurrDst(12449)
updateCurrDst(12652)
Heartbeat CPU 0 instructions: 13000001 cycles: 4261643 heartbeat IPC: 3.15656 cumulative IPC: 3.05047 (Simulation time: 0 hr 0 min 34 sec) 
updateCurrDst(12804)
updateCurrDst(12934)
updateCurrDst(12954)
updateCurrDst(13019)
updateCurrDst(13131)
updateCurrDst(13166)
updateCurrDst(13257)
updateCurrDst(13268)
updateCurrDst(13328)
updateCurrDst(13365)
updateCurrDst(13392)
updateCurrDst(13400)
updateCurrDst(13760)
updateCurrDst(13854)
updateCurrDst(13900)
updateCurrDst(13938)
updateCurrDst(14029)
updateCurrDst(14177)
updateCurrDst(14186)
updateCurrDst(14191)
updateCurrDst(14231)
updateCurrDst(14253)
updateCurrDst(14274)
updateCurrDst(14282)
updateCurrDst(14283)
Heartbeat CPU 0 instructions: 14000002 cycles: 4578664 heartbeat IPC: 3.15437 cumulative IPC: 3.05766 (Simulation time: 0 hr 0 min 37 sec) 
updateCurrDst(14501)
updateCurrDst(14658)
updateCurrDst(14710)
updateCurrDst(14758)
updateCurrDst(14828)
updateCurrDst(14898)
updateCurrDst(15017)
updateCurrDst(15052)
updateCurrDst(15072)
updateCurrDst(15332)
updateCurrDst(15468)
updateCurrDst(15769)
updateCurrDst(15849)
Heartbeat CPU 0 instructions: 15000002 cycles: 4895636 heartbeat IPC: 3.15485 cumulative IPC: 3.06395 (Simulation time: 0 hr 0 min 40 sec) 
updateCurrDst(16466)
updateCurrDst(16494)
updateCurrDst(16523)
updateCurrDst(16624)
updateCurrDst(16982)
updateCurrDst(17014)
updateCurrDst(17031)
updateCurrDst(17175)
updateCurrDst(17195)
updateCurrDst(17236)
updateCurrDst(17486)
updateCurrDst(17657)
Heartbeat CPU 0 instructions: 16000001 cycles: 5212596 heartbeat IPC: 3.15497 cumulative IPC: 3.06949 (Simulation time: 0 hr 0 min 43 sec) 
updateCurrDst(17904)
updateCurrDst(18501)
updateCurrDst(18608)
updateCurrDst(18741)
updateCurrDst(18822)
updateCurrDst(18955)
updateCurrDst(19113)
updateCurrDst(19262)
updateCurrDst(19264)
updateCurrDst(19311)
updateCurrDst(19321)
updateCurrDst(19475)
updateCurrDst(19486)
Heartbeat CPU 0 instructions: 17000002 cycles: 5529464 heartbeat IPC: 3.15589 cumulative IPC: 3.07444 (Simulation time: 0 hr 0 min 46 sec) 
updateCurrDst(19610)
updateCurrDst(19631)
updateCurrDst(19723)
updateCurrDst(19867)
updateCurrDst(19890)
updateCurrDst(19938)
updateCurrDst(20025)
updateCurrDst(20044)
updateCurrDst(20119)
updateCurrDst(20205)
updateCurrDst(20686)
updateCurrDst(20900)
updateCurrDst(20938)
updateCurrDst(21021)
updateCurrDst(21079)
updateCurrDst(21089)
updateCurrDst(21177)
updateCurrDst(21217)
updateCurrDst(21263)
Heartbeat CPU 0 instructions: 18000003 cycles: 5846276 heartbeat IPC: 3.15645 cumulative IPC: 3.07888 (Simulation time: 0 hr 0 min 49 sec) 
updateCurrDst(21380)
updateCurrDst(21495)
updateCurrDst(21516)
updateCurrDst(21552)
updateCurrDst(21599)
updateCurrDst(21824)
updateCurrDst(21914)
updateCurrDst(21992)
updateCurrDst(22048)
updateCurrDst(22339)
updateCurrDst(22379)
updateCurrDst(22500)
updateCurrDst(22652)
updateCurrDst(22768)
updateCurrDst(22795)
updateCurrDst(22861)
updateCurrDst(22924)
Heartbeat CPU 0 instructions: 19000001 cycles: 6163439 heartbeat IPC: 3.15295 cumulative IPC: 3.08269 (Simulation time: 0 hr 0 min 52 sec) 
updateCurrDst(23251)
updateCurrDst(23267)
updateCurrDst(23309)
updateCurrDst(23325)
updateCurrDst(23575)
updateCurrDst(23640)
updateCurrDst(23757)
updateCurrDst(23767)
updateCurrDst(23769)
updateCurrDst(24092)
updateCurrDst(24379)
updateCurrDst(24447)
updateCurrDst(24449)
updateCurrDst(24465)
Heartbeat CPU 0 instructions: 20000003 cycles: 6480328 heartbeat IPC: 3.15569 cumulative IPC: 3.08626 (Simulation time: 0 hr 0 min 55 sec) 
updateCurrDst(24985)
updateCurrDst(25203)
updateCurrDst(25447)
updateCurrDst(25520)
updateCurrDst(25937)
updateCurrDst(25979)
updateCurrDst(26372)
updateCurrDst(26442)
updateCurrDst(26507)
Heartbeat CPU 0 instructions: 21000000 cycles: 6797274 heartbeat IPC: 3.1551 cumulative IPC: 3.08947 (Simulation time: 0 hr 0 min 58 sec) 
updateCurrDst(26542)
updateCurrDst(26893)
updateCurrDst(27042)
updateCurrDst(27089)
updateCurrDst(27106)
updateCurrDst(27110)
updateCurrDst(27142)
updateCurrDst(27204)
updateCurrDst(27262)
updateCurrDst(27324)
updateCurrDst(27519)
updateCurrDst(27572)
updateCurrDst(27600)
updateCurrDst(27620)
updateCurrDst(27622)
updateCurrDst(27661)
updateCurrDst(27849)
updateCurrDst(28200)
Heartbeat CPU 0 instructions: 22000000 cycles: 7114295 heartbeat IPC: 3.15437 cumulative IPC: 3.09237 (Simulation time: 0 hr 1 min 1 sec) 
updateCurrDst(28307)
updateCurrDst(28315)
updateCurrDst(28794)
updateCurrDst(28849)
updateCurrDst(28917)
updateCurrDst(29032)
updateCurrDst(29137)
updateCurrDst(29313)
updateCurrDst(29361)
updateCurrDst(29365)
updateCurrDst(29398)
updateCurrDst(29479)
updateCurrDst(29724)
updateCurrDst(29906)
updateCurrDst(29992)
Heartbeat CPU 0 instructions: 23000000 cycles: 7431368 heartbeat IPC: 3.15385 cumulative IPC: 3.09499 (Simulation time: 0 hr 1 min 4 sec) 
updateCurrDst(30163)
updateCurrDst(30224)
updateCurrDst(30310)
updateCurrDst(30413)
updateCurrDst(30467)
updateCurrDst(30519)
updateCurrDst(30537)
updateCurrDst(30592)
updateCurrDst(30594)
updateCurrDst(30611)
updateCurrDst(30645)
updateCurrDst(30654)
updateCurrDst(30731)
updateCurrDst(30801)
updateCurrDst(30895)
updateCurrDst(30907)
updateCurrDst(30950)
updateCurrDst(30963)
updateCurrDst(31058)
updateCurrDst(31063)
updateCurrDst(31613)
updateCurrDst(31627)
Heartbeat CPU 0 instructions: 24000002 cycles: 7748408 heartbeat IPC: 3.15418 cumulative IPC: 3.09741 (Simulation time: 0 hr 1 min 7 sec) 
updateCurrDst(31944)
updateCurrDst(32164)
updateCurrDst(32298)
updateCurrDst(32311)
updateCurrDst(32435)
updateCurrDst(32446)
updateCurrDst(32537)
updateCurrDst(33032)
updateCurrDst(33066)
updateCurrDst(33210)
updateCurrDst(33227)
updateCurrDst(33235)
updateCurrDst(33294)
updateCurrDst(33376)
updateCurrDst(33440)
Heartbeat CPU 0 instructions: 25000000 cycles: 8065791 heartbeat IPC: 3.15076 cumulative IPC: 3.09951 (Simulation time: 0 hr 1 min 10 sec) 
updateCurrDst(33509)
updateCurrDst(33672)
updateCurrDst(33806)
updateCurrDst(33842)
updateCurrDst(33914)
updateCurrDst(34140)
updateCurrDst(34499)
updateCurrDst(34548)
updateCurrDst(34726)
updateCurrDst(34734)
updateCurrDst(34824)
updateCurrDst(34971)
Heartbeat CPU 0 instructions: 26000002 cycles: 8382592 heartbeat IPC: 3.15656 cumulative IPC: 3.10167 (Simulation time: 0 hr 1 min 14 sec) 
updateCurrDst(35218)
updateCurrDst(35277)
updateCurrDst(35398)
updateCurrDst(35519)
updateCurrDst(35529)
updateCurrDst(35614)
updateCurrDst(35659)
updateCurrDst(35742)
updateCurrDst(35865)
updateCurrDst(35955)
updateCurrDst(36000)
updateCurrDst(36185)
updateCurrDst(36288)
updateCurrDst(36293)
updateCurrDst(36418)
updateCurrDst(36464)
updateCurrDst(36489)
updateCurrDst(36507)
updateCurrDst(36836)
updateCurrDst(36846)
Heartbeat CPU 0 instructions: 27000000 cycles: 8699525 heartbeat IPC: 3.15523 cumulative IPC: 3.10362 (Simulation time: 0 hr 1 min 17 sec) 
updateCurrDst(37013)
updateCurrDst(37132)
updateCurrDst(37203)
updateCurrDst(37519)
updateCurrDst(37683)
updateCurrDst(37723)
updateCurrDst(37839)
updateCurrDst(37860)
updateCurrDst(38188)
updateCurrDst(38220)
updateCurrDst(38229)
updateCurrDst(38334)
updateCurrDst(38368)
updateCurrDst(38405)
Heartbeat CPU 0 instructions: 28000000 cycles: 9016587 heartbeat IPC: 3.15396 cumulative IPC: 3.10539 (Simulation time: 0 hr 1 min 20 sec) 
updateCurrDst(38650)
updateCurrDst(38673)
updateCurrDst(38729)
updateCurrDst(38837)
updateCurrDst(38859)
updateCurrDst(38938)
updateCurrDst(38942)
updateCurrDst(38943)
updateCurrDst(39262)
updateCurrDst(39323)
updateCurrDst(39430)
updateCurrDst(39551)
updateCurrDst(39657)
updateCurrDst(39661)
updateCurrDst(40093)
updateCurrDst(40154)
updateCurrDst(40176)
Heartbeat CPU 0 instructions: 29000001 cycles: 9333685 heartbeat IPC: 3.1536 cumulative IPC: 3.10703 (Simulation time: 0 hr 1 min 23 sec) 
updateCurrDst(40462)
updateCurrDst(40575)
updateCurrDst(40625)
updateCurrDst(40656)
updateCurrDst(40827)
updateCurrDst(40899)
updateCurrDst(40920)
updateCurrDst(40990)
updateCurrDst(41027)
updateCurrDst(41082)
updateCurrDst(41167)
updateCurrDst(41189)
updateCurrDst(41249)
updateCurrDst(41266)
updateCurrDst(41461)
updateCurrDst(41613)
updateCurrDst(41654)
updateCurrDst(41782)
updateCurrDst(42024)
updateCurrDst(42030)
updateCurrDst(42108)
Heartbeat CPU 0 instructions: 30000001 cycles: 9651016 heartbeat IPC: 3.15128 cumulative IPC: 3.10848 (Simulation time: 0 hr 1 min 26 sec) 
updateCurrDst(42169)
updateCurrDst(42319)
updateCurrDst(42447)
updateCurrDst(42495)
updateCurrDst(42560)
updateCurrDst(42636)
updateCurrDst(42712)
updateCurrDst(42715)
updateCurrDst(42792)
updateCurrDst(42817)
updateCurrDst(42895)
updateCurrDst(42951)
updateCurrDst(42975)
updateCurrDst(43145)
updateCurrDst(43173)
updateCurrDst(43312)
updateCurrDst(43356)
updateCurrDst(43359)
updateCurrDst(43507)
updateCurrDst(43564)
updateCurrDst(43787)
updateCurrDst(43822)
updateCurrDst(43827)
updateCurrDst(43843)
Heartbeat CPU 0 instructions: 31000000 cycles: 9968255 heartbeat IPC: 3.15219 cumulative IPC: 3.10987 (Simulation time: 0 hr 1 min 29 sec) 
updateCurrDst(44138)
updateCurrDst(44450)
updateCurrDst(44513)
updateCurrDst(44537)
updateCurrDst(45022)
updateCurrDst(45121)
updateCurrDst(45284)
updateCurrDst(45515)
updateCurrDst(45534)
Heartbeat CPU 0 instructions: 32000001 cycles: 10285474 heartbeat IPC: 3.1524 cumulative IPC: 3.11118 (Simulation time: 0 hr 1 min 32 sec) 
updateCurrDst(45664)
updateCurrDst(45722)
updateCurrDst(45781)
updateCurrDst(45822)
updateCurrDst(46031)
updateCurrDst(46074)
updateCurrDst(46119)
updateCurrDst(46155)
updateCurrDst(46174)
updateCurrDst(46210)
updateCurrDst(46264)
updateCurrDst(46276)
updateCurrDst(46527)
updateCurrDst(46616)
updateCurrDst(46667)
updateCurrDst(46693)
updateCurrDst(47238)
Heartbeat CPU 0 instructions: 33000000 cycles: 10602355 heartbeat IPC: 3.15576 cumulative IPC: 3.11252 (Simulation time: 0 hr 1 min 35 sec) 
updateCurrDst(47321)
updateCurrDst(47506)
updateCurrDst(47770)
updateCurrDst(47857)
updateCurrDst(48034)
updateCurrDst(48078)
updateCurrDst(48339)
updateCurrDst(48372)
updateCurrDst(48436)
updateCurrDst(48489)
updateCurrDst(48564)
updateCurrDst(48621)
updateCurrDst(48701)
updateCurrDst(49011)
updateCurrDst(49026)
Heartbeat CPU 0 instructions: 34000000 cycles: 10919391 heartbeat IPC: 3.15422 cumulative IPC: 3.11373 (Simulation time: 0 hr 1 min 38 sec) 
updateCurrDst(49101)
updateCurrDst(49416)
updateCurrDst(49419)
updateCurrDst(49604)
updateCurrDst(49632)
updateCurrDst(49643)
updateCurrDst(49832)
updateCurrDst(49843)
updateCurrDst(49915)
updateCurrDst(49956)
updateCurrDst(50340)
updateCurrDst(50493)
updateCurrDst(50546)
updateCurrDst(50589)
updateCurrDst(50697)
Heartbeat CPU 0 instructions: 35000002 cycles: 11236818 heartbeat IPC: 3.15034 cumulative IPC: 3.11476 (Simulation time: 0 hr 1 min 41 sec) 
updateCurrDst(50806)
updateCurrDst(51104)
updateCurrDst(51173)
updateCurrDst(51191)
updateCurrDst(51223)
updateCurrDst(51235)
updateCurrDst(51239)
updateCurrDst(51364)
updateCurrDst(51471)
updateCurrDst(51543)
updateCurrDst(51550)
updateCurrDst(51587)
updateCurrDst(51619)
updateCurrDst(52028)
updateCurrDst(52114)
updateCurrDst(52129)
updateCurrDst(52157)
updateCurrDst(52259)
updateCurrDst(52360)
Heartbeat CPU 0 instructions: 36000000 cycles: 11553764 heartbeat IPC: 3.15511 cumulative IPC: 3.11587 (Simulation time: 0 hr 1 min 44 sec) 
updateCurrDst(52722)
updateCurrDst(52738)
updateCurrDst(52749)
updateCurrDst(52838)
updateCurrDst(52896)
updateCurrDst(52971)
updateCurrDst(53301)
updateCurrDst(53546)
updateCurrDst(53801)
updateCurrDst(53887)
updateCurrDst(54059)
updateCurrDst(54091)
updateCurrDst(54140)
updateCurrDst(54184)
Heartbeat CPU 0 instructions: 37000000 cycles: 11870820 heartbeat IPC: 3.15402 cumulative IPC: 3.11689 (Simulation time: 0 hr 1 min 47 sec) 
updateCurrDst(54341)
updateCurrDst(54491)
updateCurrDst(54652)
updateCurrDst(54733)
updateCurrDst(54795)
updateCurrDst(54993)
updateCurrDst(55205)
updateCurrDst(55388)
updateCurrDst(55441)
updateCurrDst(55464)
updateCurrDst(55582)
updateCurrDst(55799)
Heartbeat CPU 0 instructions: 38000001 cycles: 12188078 heartbeat IPC: 3.15201 cumulative IPC: 3.1178 (Simulation time: 0 hr 1 min 50 sec) 
updateCurrDst(56005)
updateCurrDst(56035)
updateCurrDst(56066)
updateCurrDst(56149)
updateCurrDst(56186)
updateCurrDst(56289)
updateCurrDst(56356)
updateCurrDst(56368)
updateCurrDst(56819)
updateCurrDst(56918)
updateCurrDst(57085)
updateCurrDst(57104)
updateCurrDst(57128)
updateCurrDst(57159)
updateCurrDst(57181)
updateCurrDst(57226)
updateCurrDst(57306)
updateCurrDst(57410)
updateCurrDst(57435)
updateCurrDst(57453)
updateCurrDst(57519)
updateCurrDst(57662)
updateCurrDst(57723)
Heartbeat CPU 0 instructions: 39000002 cycles: 12505147 heartbeat IPC: 3.15389 cumulative IPC: 3.11872 (Simulation time: 0 hr 1 min 53 sec) 
updateCurrDst(57771)
updateCurrDst(57850)
updateCurrDst(58087)
updateCurrDst(58364)
updateCurrDst(58377)
updateCurrDst(58533)
updateCurrDst(58578)
updateCurrDst(58694)
updateCurrDst(58758)
updateCurrDst(58999)
updateCurrDst(59084)
updateCurrDst(59091)
updateCurrDst(59364)
updateCurrDst(59401)
updateCurrDst(59430)
Heartbeat CPU 0 instructions: 40000003 cycles: 12822442 heartbeat IPC: 3.15164 cumulative IPC: 3.11953 (Simulation time: 0 hr 1 min 56 sec) 
updateCurrDst(59608)
updateCurrDst(59689)
updateCurrDst(59793)
updateCurrDst(59908)
updateCurrDst(60079)
updateCurrDst(60085)
updateCurrDst(60105)
updateCurrDst(60186)
updateCurrDst(60237)
updateCurrDst(60349)
updateCurrDst(60775)
updateCurrDst(60937)
updateCurrDst(60972)
updateCurrDst(61063)
updateCurrDst(61191)
updateCurrDst(61199)
Heartbeat CPU 0 instructions: 41000000 cycles: 13139598 heartbeat IPC: 3.15301 cumulative IPC: 3.12034 (Simulation time: 0 hr 1 min 59 sec) 
updateCurrDst(61325)
updateCurrDst(61327)
updateCurrDst(61410)
updateCurrDst(61496)
updateCurrDst(61524)
updateCurrDst(61547)
updateCurrDst(61710)
updateCurrDst(61761)
updateCurrDst(61870)
updateCurrDst(62089)
updateCurrDst(62219)
updateCurrDst(62391)
updateCurrDst(62834)
Heartbeat CPU 0 instructions: 42000001 cycles: 13456768 heartbeat IPC: 3.15289 cumulative IPC: 3.12111 (Simulation time: 0 hr 2 min 2 sec) 

Warmup complete CPU 0 instructions: 42000001 cycles: 13456768 (Simulation time: 0 hr 2 min 2 sec) 

updateCurrDst(63058)
updateCurrDst(63155)
updateCurrDst(63193)
updateCurrDst(63582)
updateCurrDst(63697)
updateCurrDst(63782)
updateCurrDst(63839)
updateCurrDst(63983)
updateCurrDst(64043)
updateCurrDst(64090)
updateCurrDst(64111)
updateCurrDst(64193)
updateCurrDst(64278)
updateCurrDst(64351)
updateCurrDst(64462)
updateCurrDst(64496)
updateCurrDst(64616)
Heartbeat CPU 0 instructions: 43000001 cycles: 16531512 heartbeat IPC: 0.32523 cumulative IPC: 0.32523 (Simulation time: 0 hr 2 min 6 sec) 
updateCurrDst(64712)
updateCurrDst(64715)
updateCurrDst(64718)
updateCurrDst(64737)
updateCurrDst(64788)
updateCurrDst(64837)
updateCurrDst(64962)
updateCurrDst(65098)
updateCurrDst(65144)
updateCurrDst(65241)
updateCurrDst(65643)
updateCurrDst(65801)
updateCurrDst(66015)
updateCurrDst(66336)
updateCurrDst(66400)
Heartbeat CPU 0 instructions: 44000000 cycles: 19609817 heartbeat IPC: 0.324854 cumulative IPC: 0.325042 (Simulation time: 0 hr 2 min 10 sec) 
updateCurrDst(66510)
updateCurrDst(66585)
updateCurrDst(66598)
updateCurrDst(66693)
updateCurrDst(66744)
updateCurrDst(66805)
updateCurrDst(66862)
updateCurrDst(67124)
updateCurrDst(67351)
updateCurrDst(67424)
updateCurrDst(67541)
updateCurrDst(67726)
updateCurrDst(67759)
updateCurrDst(67951)
updateCurrDst(67995)
Heartbeat CPU 0 instructions: 45000000 cycles: 22677657 heartbeat IPC: 0.325962 cumulative IPC: 0.325348 (Simulation time: 0 hr 2 min 13 sec) 
updateCurrDst(68292)
updateCurrDst(68366)
updateCurrDst(68535)
updateCurrDst(68537)
updateCurrDst(68912)
updateCurrDst(68934)
updateCurrDst(69053)
updateCurrDst(69340)
updateCurrDst(69476)
updateCurrDst(69536)
updateCurrDst(69624)
updateCurrDst(69797)
updateCurrDst(69800)
updateCurrDst(69817)
updateCurrDst(69882)
Heartbeat CPU 0 instructions: 46000003 cycles: 25748458 heartbeat IPC: 0.325649 cumulative IPC: 0.325423 (Simulation time: 0 hr 2 min 16 sec) 
updateCurrDst(70032)
updateCurrDst(70095)
updateCurrDst(70149)
updateCurrDst(70191)
updateCurrDst(70287)
updateCurrDst(70288)
updateCurrDst(70437)
updateCurrDst(70521)
updateCurrDst(70671)
updateCurrDst(70711)
updateCurrDst(70748)
updateCurrDst(70963)
updateCurrDst(71015)
updateCurrDst(71277)
updateCurrDst(71283)
updateCurrDst(71299)
updateCurrDst(71524)
updateCurrDst(71531)
Heartbeat CPU 0 instructions: 47000000 cycles: 28816178 heartbeat IPC: 0.325974 cumulative IPC: 0.325533 (Simulation time: 0 hr 2 min 19 sec) 
updateCurrDst(71701)
updateCurrDst(71761)
updateCurrDst(71859)
updateCurrDst(72264)
updateCurrDst(72293)
updateCurrDst(72391)
updateCurrDst(72393)
updateCurrDst(72419)
updateCurrDst(72453)
updateCurrDst(72561)
updateCurrDst(72755)
updateCurrDst(72809)
updateCurrDst(73061)
updateCurrDst(73108)
updateCurrDst(73124)
updateCurrDst(73139)
Heartbeat CPU 0 instructions: 48000002 cycles: 31885792 heartbeat IPC: 0.325775 cumulative IPC: 0.325573 (Simulation time: 0 hr 2 min 23 sec) 
updateCurrDst(73733)
updateCurrDst(73765)
updateCurrDst(73800)
updateCurrDst(73896)
updateCurrDst(73921)
updateCurrDst(73930)
updateCurrDst(74062)
updateCurrDst(74097)
updateCurrDst(74115)
updateCurrDst(74210)
updateCurrDst(74275)
updateCurrDst(74377)
updateCurrDst(74583)
updateCurrDst(74657)
updateCurrDst(74690)
updateCurrDst(74729)
updateCurrDst(74733)
updateCurrDst(74767)
updateCurrDst(74834)
updateCurrDst(75023)
Heartbeat CPU 0 instructions: 49000001 cycles: 34959954 heartbeat IPC: 0.325292 cumulative IPC: 0.325533 (Simulation time: 0 hr 2 min 26 sec) 
updateCurrDst(75228)
updateCurrDst(75291)
updateCurrDst(75300)
updateCurrDst(75437)
updateCurrDst(75584)
updateCurrDst(75628)
updateCurrDst(75667)
updateCurrDst(75680)
updateCurrDst(75730)
updateCurrDst(75887)
updateCurrDst(75922)
updateCurrDst(76128)
updateCurrDst(76222)
updateCurrDst(76339)
updateCurrDst(76631)
Heartbeat CPU 0 instructions: 50000000 cycles: 38032595 heartbeat IPC: 0.325453 cumulative IPC: 0.325523 (Simulation time: 0 hr 2 min 29 sec) 
updateCurrDst(76870)
updateCurrDst(76909)
updateCurrDst(77259)
updateCurrDst(77337)
updateCurrDst(77427)
updateCurrDst(77434)
updateCurrDst(78040)
updateCurrDst(78400)
updateCurrDst(78464)
updateCurrDst(78488)
Heartbeat CPU 0 instructions: 51000003 cycles: 41098043 heartbeat IPC: 0.326218 cumulative IPC: 0.3256 (Simulation time: 0 hr 2 min 33 sec) 
updateCurrDst(78653)
updateCurrDst(78799)
updateCurrDst(78991)
updateCurrDst(79124)
updateCurrDst(79195)
updateCurrDst(79224)
updateCurrDst(79304)
updateCurrDst(79345)
updateCurrDst(79415)
updateCurrDst(79475)
updateCurrDst(79495)
updateCurrDst(79682)
updateCurrDst(79780)
updateCurrDst(79864)
updateCurrDst(79925)
updateCurrDst(79948)
updateCurrDst(80162)
Heartbeat CPU 0 instructions: 52000002 cycles: 44176626 heartbeat IPC: 0.324824 cumulative IPC: 0.325522 (Simulation time: 0 hr 2 min 36 sec) 
updateCurrDst(80276)
updateCurrDst(80411)
updateCurrDst(80439)
updateCurrDst(80447)
updateCurrDst(80820)
updateCurrDst(80853)
updateCurrDst(80890)
updateCurrDst(80896)
updateCurrDst(80931)
updateCurrDst(80948)
updateCurrDst(81206)
updateCurrDst(81477)
updateCurrDst(81604)
Heartbeat CPU 0 instructions: 53000002 cycles: 47245716 heartbeat IPC: 0.325829 cumulative IPC: 0.32555 (Simulation time: 0 hr 2 min 40 sec) 
updateCurrDst(82045)
updateCurrDst(82065)
updateCurrDst(82432)
updateCurrDst(82520)
updateCurrDst(82548)
updateCurrDst(82672)
updateCurrDst(82762)
updateCurrDst(82878)
updateCurrDst(82926)
updateCurrDst(82982)
updateCurrDst(83273)
updateCurrDst(83354)
updateCurrDst(83472)
updateCurrDst(83479)
updateCurrDst(83564)
updateCurrDst(83573)
updateCurrDst(83597)
Heartbeat CPU 0 instructions: 54000003 cycles: 50318742 heartbeat IPC: 0.325412 cumulative IPC: 0.325539 (Simulation time: 0 hr 2 min 43 sec) 
updateCurrDst(83924)
updateCurrDst(84042)
updateCurrDst(84091)
updateCurrDst(84129)
updateCurrDst(84197)
updateCurrDst(84222)
updateCurrDst(84237)
updateCurrDst(84284)
updateCurrDst(84681)
updateCurrDst(84822)
updateCurrDst(84836)
updateCurrDst(85258)
updateCurrDst(85406)
Heartbeat CPU 0 instructions: 55000000 cycles: 53386584 heartbeat IPC: 0.325961 cumulative IPC: 0.325571 (Simulation time: 0 hr 2 min 49 sec) 
updateCurrDst(85508)
updateCurrDst(85519)
updateCurrDst(85520)
updateCurrDst(85574)
updateCurrDst(85585)
updateCurrDst(85604)
updateCurrDst(85637)
updateCurrDst(85688)
updateCurrDst(85719)
updateCurrDst(85839)
updateCurrDst(85870)
updateCurrDst(85973)
updateCurrDst(86255)
updateCurrDst(86261)
updateCurrDst(86312)
updateCurrDst(86363)
updateCurrDst(86486)
updateCurrDst(86536)
updateCurrDst(86622)
updateCurrDst(86623)
updateCurrDst(86624)
updateCurrDst(86840)
updateCurrDst(86850)
updateCurrDst(86868)
Heartbeat CPU 0 instructions: 56000001 cycles: 56451213 heartbeat IPC: 0.326304 cumulative IPC: 0.325623 (Simulation time: 0 hr 2 min 53 sec) 
updateCurrDst(87185)
updateCurrDst(87353)
updateCurrDst(87416)
updateCurrDst(87417)
updateCurrDst(87424)
updateCurrDst(87474)
updateCurrDst(87519)
updateCurrDst(87529)
updateCurrDst(87626)
updateCurrDst(87627)
updateCurrDst(87693)
updateCurrDst(87717)
updateCurrDst(88097)
updateCurrDst(88238)
updateCurrDst(88282)
updateCurrDst(88300)
updateCurrDst(88326)
updateCurrDst(88427)
updateCurrDst(88504)
updateCurrDst(88515)
updateCurrDst(88737)
updateCurrDst(88921)
Heartbeat CPU 0 instructions: 57000002 cycles: 59525236 heartbeat IPC: 0.325307 cumulative IPC: 0.325602 (Simulation time: 0 hr 2 min 56 sec) 
updateCurrDst(88971)
updateCurrDst(89044)
updateCurrDst(89045)
updateCurrDst(89085)
updateCurrDst(89199)
updateCurrDst(89279)
updateCurrDst(89302)
updateCurrDst(89486)
updateCurrDst(89515)
updateCurrDst(89566)
updateCurrDst(89614)
updateCurrDst(89757)
updateCurrDst(89939)
updateCurrDst(90088)
updateCurrDst(90095)
updateCurrDst(90136)
updateCurrDst(90157)
updateCurrDst(90326)
updateCurrDst(90337)
updateCurrDst(90351)
updateCurrDst(90371)
updateCurrDst(90377)
Heartbeat CPU 0 instructions: 58000000 cycles: 62592640 heartbeat IPC: 0.326008 cumulative IPC: 0.325628 (Simulation time: 0 hr 3 min 0 sec) 
updateCurrDst(90693)
updateCurrDst(90891)
updateCurrDst(90919)
updateCurrDst(90992)
updateCurrDst(91076)
updateCurrDst(91121)
updateCurrDst(91670)
updateCurrDst(91726)
updateCurrDst(91774)
updateCurrDst(91817)
updateCurrDst(91920)
updateCurrDst(92000)
updateCurrDst(92142)
updateCurrDst(92163)
updateCurrDst(92167)
Heartbeat CPU 0 instructions: 59000002 cycles: 65656331 heartbeat IPC: 0.326404 cumulative IPC: 0.325673 (Simulation time: 0 hr 3 min 4 sec) 
updateCurrDst(92520)
updateCurrDst(92580)
updateCurrDst(92587)
updateCurrDst(92597)
updateCurrDst(92675)
updateCurrDst(92717)
updateCurrDst(92779)
updateCurrDst(92784)
updateCurrDst(92837)
updateCurrDst(92900)
updateCurrDst(92931)
updateCurrDst(93204)
updateCurrDst(93236)
updateCurrDst(93306)
updateCurrDst(93491)
updateCurrDst(93946)
updateCurrDst(93998)
updateCurrDst(94087)
updateCurrDst(94091)
Heartbeat CPU 0 instructions: 60000001 cycles: 68730775 heartbeat IPC: 0.325262 cumulative IPC: 0.32565 (Simulation time: 0 hr 3 min 8 sec) 
updateCurrDst(94187)
updateCurrDst(94532)
updateCurrDst(94683)
updateCurrDst(94993)
updateCurrDst(95054)
updateCurrDst(95079)
updateCurrDst(95122)
updateCurrDst(95151)
updateCurrDst(95360)
updateCurrDst(95706)
Heartbeat CPU 0 instructions: 61000000 cycles: 71800310 heartbeat IPC: 0.325782 cumulative IPC: 0.325657 (Simulation time: 0 hr 3 min 14 sec) 
updateCurrDst(96247)
updateCurrDst(96285)
updateCurrDst(96286)
updateCurrDst(96299)
updateCurrDst(96340)
updateCurrDst(96418)
updateCurrDst(96544)
updateCurrDst(96631)
updateCurrDst(96652)
updateCurrDst(96736)
updateCurrDst(96823)
updateCurrDst(96955)
updateCurrDst(97089)
updateCurrDst(97109)
updateCurrDst(97329)
updateCurrDst(97503)
updateCurrDst(97586)
updateCurrDst(97592)
Heartbeat CPU 0 instructions: 62000000 cycles: 74862760 heartbeat IPC: 0.326536 cumulative IPC: 0.325701 (Simulation time: 0 hr 3 min 18 sec) 
updateCurrDst(97630)
updateCurrDst(97686)
updateCurrDst(97932)
updateCurrDst(97976)
updateCurrDst(97978)
updateCurrDst(97990)
updateCurrDst(98001)
updateCurrDst(98052)
updateCurrDst(98166)
updateCurrDst(98295)
updateCurrDst(98483)
updateCurrDst(98489)
updateCurrDst(98538)
updateCurrDst(98634)
updateCurrDst(98841)
updateCurrDst(98866)
updateCurrDst(99300)
updateCurrDst(99303)
Heartbeat CPU 0 instructions: 63000003 cycles: 77944863 heartbeat IPC: 0.324455 cumulative IPC: 0.325642 (Simulation time: 0 hr 3 min 21 sec) 
updateCurrDst(99366)
updateCurrDst(99394)
updateCurrDst(99449)
updateCurrDst(99620)
updateCurrDst(99637)
updateCurrDst(99650)
updateCurrDst(99881)
updateCurrDst(99978)
updateCurrDst(100023)
updateCurrDst(100272)
updateCurrDst(100311)
updateCurrDst(100477)
updateCurrDst(100490)
updateCurrDst(100510)
updateCurrDst(100659)
updateCurrDst(100750)
updateCurrDst(100813)
updateCurrDst(100822)
updateCurrDst(100853)
updateCurrDst(100931)
updateCurrDst(101074)
updateCurrDst(101078)
Heartbeat CPU 0 instructions: 64000001 cycles: 81009390 heartbeat IPC: 0.326314 cumulative IPC: 0.325672 (Simulation time: 0 hr 3 min 25 sec) 
updateCurrDst(101136)
updateCurrDst(101257)
updateCurrDst(101448)
updateCurrDst(101469)
updateCurrDst(101479)
updateCurrDst(101555)
updateCurrDst(101634)
updateCurrDst(101660)
updateCurrDst(101711)
updateCurrDst(101834)
updateCurrDst(101845)
updateCurrDst(102004)
updateCurrDst(102012)
updateCurrDst(102076)
updateCurrDst(102322)
updateCurrDst(102343)
updateCurrDst(102425)
updateCurrDst(102508)
updateCurrDst(102554)
updateCurrDst(102589)
updateCurrDst(102666)
updateCurrDst(102754)
Heartbeat CPU 0 instructions: 65000002 cycles: 84075661 heartbeat IPC: 0.326129 cumulative IPC: 0.325692 (Simulation time: 0 hr 3 min 29 sec) 
updateCurrDst(102853)
updateCurrDst(102864)
updateCurrDst(102872)
updateCurrDst(103066)
updateCurrDst(103201)
updateCurrDst(103351)
updateCurrDst(103404)
updateCurrDst(103482)
updateCurrDst(103483)
updateCurrDst(103524)
updateCurrDst(103639)
updateCurrDst(103878)
updateCurrDst(104122)
updateCurrDst(104199)
updateCurrDst(104339)
updateCurrDst(104530)
Heartbeat CPU 0 instructions: 66000000 cycles: 87148182 heartbeat IPC: 0.325465 cumulative IPC: 0.325682 (Simulation time: 0 hr 3 min 32 sec) 
updateCurrDst(104663)
updateCurrDst(104892)
updateCurrDst(105198)
updateCurrDst(105328)
updateCurrDst(105353)
updateCurrDst(105457)
updateCurrDst(105542)
updateCurrDst(105560)
updateCurrDst(105750)
updateCurrDst(105860)
updateCurrDst(105896)
updateCurrDst(105924)
updateCurrDst(106022)
updateCurrDst(106284)
Heartbeat CPU 0 instructions: 67000000 cycles: 90214937 heartbeat IPC: 0.326078 cumulative IPC: 0.325698 (Simulation time: 0 hr 3 min 36 sec) 
updateCurrDst(106412)
updateCurrDst(106481)
updateCurrDst(106854)
updateCurrDst(106968)
updateCurrDst(107096)
updateCurrDst(107119)
updateCurrDst(107171)
updateCurrDst(107280)
updateCurrDst(107299)
updateCurrDst(107346)
updateCurrDst(107404)
updateCurrDst(107512)
updateCurrDst(107594)
updateCurrDst(107654)
updateCurrDst(107716)
updateCurrDst(107876)
Heartbeat CPU 0 instructions: 68000000 cycles: 93282882 heartbeat IPC: 0.325951 cumulative IPC: 0.325708 (Simulation time: 0 hr 3 min 39 sec) 
updateCurrDst(108228)
updateCurrDst(108270)
updateCurrDst(108364)
updateCurrDst(108502)
updateCurrDst(108538)
updateCurrDst(108673)
updateCurrDst(108711)
updateCurrDst(108871)
updateCurrDst(109053)
updateCurrDst(109257)
updateCurrDst(109286)
updateCurrDst(109303)
updateCurrDst(109308)
updateCurrDst(109416)
updateCurrDst(109737)
Heartbeat CPU 0 instructions: 69000000 cycles: 96356766 heartbeat IPC: 0.325321 cumulative IPC: 0.325694 (Simulation time: 0 hr 3 min 43 sec) 
updateCurrDst(109828)
updateCurrDst(110012)
updateCurrDst(110085)
updateCurrDst(110118)
updateCurrDst(110208)
updateCurrDst(110279)
updateCurrDst(110334)
updateCurrDst(110381)
updateCurrDst(110408)
updateCurrDst(110511)
updateCurrDst(111195)
updateCurrDst(111294)
updateCurrDst(111318)
updateCurrDst(111488)
Heartbeat CPU 0 instructions: 70000000 cycles: 99421254 heartbeat IPC: 0.326319 cumulative IPC: 0.325716 (Simulation time: 0 hr 3 min 46 sec) 
updateCurrDst(111548)
updateCurrDst(111592)
updateCurrDst(112050)
updateCurrDst(112429)
updateCurrDst(112529)
updateCurrDst(112632)
updateCurrDst(112740)
updateCurrDst(112747)
updateCurrDst(112750)
updateCurrDst(112832)
updateCurrDst(112974)
updateCurrDst(113091)
updateCurrDst(113235)
Heartbeat CPU 0 instructions: 71000000 cycles: 102489718 heartbeat IPC: 0.325896 cumulative IPC: 0.325722 (Simulation time: 0 hr 3 min 50 sec) 
updateCurrDst(113385)
updateCurrDst(113407)
updateCurrDst(113522)
updateCurrDst(113706)
updateCurrDst(113995)
updateCurrDst(114036)
updateCurrDst(114311)
updateCurrDst(114460)
updateCurrDst(114514)
updateCurrDst(114530)
updateCurrDst(114666)
updateCurrDst(114690)
updateCurrDst(114714)
updateCurrDst(114777)
updateCurrDst(114881)
updateCurrDst(114966)
Heartbeat CPU 0 instructions: 72000001 cycles: 105558082 heartbeat IPC: 0.325907 cumulative IPC: 0.325728 (Simulation time: 0 hr 3 min 53 sec) 
updateCurrDst(115268)
updateCurrDst(115371)
updateCurrDst(115448)
updateCurrDst(115720)
updateCurrDst(115727)
updateCurrDst(115859)
updateCurrDst(115948)
updateCurrDst(115979)
updateCurrDst(116029)
updateCurrDst(116127)
updateCurrDst(116162)
updateCurrDst(116480)
updateCurrDst(116644)
Heartbeat CPU 0 instructions: 73000001 cycles: 108623175 heartbeat IPC: 0.326254 cumulative IPC: 0.325745 (Simulation time: 0 hr 3 min 56 sec) 
updateCurrDst(116736)
updateCurrDst(116915)
updateCurrDst(117134)
updateCurrDst(117141)
updateCurrDst(117209)
updateCurrDst(117707)
updateCurrDst(117712)
updateCurrDst(117835)
updateCurrDst(118009)
updateCurrDst(118089)
updateCurrDst(118111)
updateCurrDst(118155)
updateCurrDst(118252)
updateCurrDst(118437)
Heartbeat CPU 0 instructions: 74000001 cycles: 111705094 heartbeat IPC: 0.324473 cumulative IPC: 0.325705 (Simulation time: 0 hr 4 min 0 sec) 
updateCurrDst(118652)
updateCurrDst(118675)
updateCurrDst(119223)
updateCurrDst(119224)
updateCurrDst(119225)
updateCurrDst(119229)
updateCurrDst(119286)
updateCurrDst(119447)
updateCurrDst(119706)
updateCurrDst(119873)
updateCurrDst(119874)
updateCurrDst(120026)
updateCurrDst(120107)
Heartbeat CPU 0 instructions: 75000000 cycles: 114772291 heartbeat IPC: 0.32603 cumulative IPC: 0.325715 (Simulation time: 0 hr 4 min 4 sec) 
updateCurrDst(120193)
updateCurrDst(120276)
updateCurrDst(120334)
updateCurrDst(120529)
updateCurrDst(120545)
updateCurrDst(120650)
updateCurrDst(120891)
updateCurrDst(120920)
updateCurrDst(121148)
updateCurrDst(121460)
updateCurrDst(121599)
updateCurrDst(121600)
updateCurrDst(121606)
updateCurrDst(121676)
updateCurrDst(121711)
Heartbeat CPU 0 instructions: 76000000 cycles: 117835459 heartbeat IPC: 0.326459 cumulative IPC: 0.325737 (Simulation time: 0 hr 4 min 7 sec) 
updateCurrDst(122022)
updateCurrDst(122119)
updateCurrDst(122349)
updateCurrDst(122419)
updateCurrDst(122701)
updateCurrDst(122852)
updateCurrDst(122868)
updateCurrDst(122987)
updateCurrDst(123112)
updateCurrDst(123210)
Heartbeat CPU 0 instructions: 77000000 cycles: 120903749 heartbeat IPC: 0.325914 cumulative IPC: 0.325742 (Simulation time: 0 hr 4 min 11 sec) 
updateCurrDst(123682)
updateCurrDst(123730)
updateCurrDst(123931)
updateCurrDst(123958)
updateCurrDst(124064)
updateCurrDst(124310)
updateCurrDst(124368)
updateCurrDst(124393)
updateCurrDst(124582)
updateCurrDst(124587)
updateCurrDst(124674)
updateCurrDst(124780)
updateCurrDst(124843)
updateCurrDst(124866)
updateCurrDst(124900)
updateCurrDst(125193)
updateCurrDst(125321)
updateCurrDst(125355)
Heartbeat CPU 0 instructions: 78000000 cycles: 123969406 heartbeat IPC: 0.326194 cumulative IPC: 0.325755 (Simulation time: 0 hr 4 min 14 sec) 
updateCurrDst(125606)
updateCurrDst(125618)
updateCurrDst(125734)
updateCurrDst(125906)
updateCurrDst(126027)
updateCurrDst(126045)
updateCurrDst(126124)
updateCurrDst(126184)
updateCurrDst(126241)
updateCurrDst(126266)
updateCurrDst(126296)
updateCurrDst(126330)
updateCurrDst(126422)
updateCurrDst(126694)
updateCurrDst(126770)
updateCurrDst(126772)
updateCurrDst(126852)
updateCurrDst(126948)
updateCurrDst(126991)
updateCurrDst(127045)
Heartbeat CPU 0 instructions: 79000001 cycles: 127040945 heartbeat IPC: 0.32557 cumulative IPC: 0.32575 (Simulation time: 0 hr 4 min 18 sec) 
updateCurrDst(127177)
updateCurrDst(127349)
updateCurrDst(127626)
updateCurrDst(127695)
updateCurrDst(127710)
updateCurrDst(127749)
updateCurrDst(127766)
updateCurrDst(127791)
updateCurrDst(127885)
updateCurrDst(127912)
updateCurrDst(127996)
updateCurrDst(128054)
updateCurrDst(128074)
updateCurrDst(128078)
updateCurrDst(128162)
updateCurrDst(128200)
updateCurrDst(128248)
updateCurrDst(128463)
updateCurrDst(128553)
updateCurrDst(128555)
Heartbeat CPU 0 instructions: 80000001 cycles: 130112199 heartbeat IPC: 0.3256 cumulative IPC: 0.325746 (Simulation time: 0 hr 4 min 21 sec) 
updateCurrDst(128859)
updateCurrDst(128890)
updateCurrDst(129034)
updateCurrDst(129125)
updateCurrDst(129163)
updateCurrDst(129205)
updateCurrDst(129295)
updateCurrDst(129456)
updateCurrDst(129458)
updateCurrDst(129463)
updateCurrDst(129502)
updateCurrDst(129546)
updateCurrDst(129563)
updateCurrDst(129794)
updateCurrDst(129873)
updateCurrDst(129939)
updateCurrDst(130013)
updateCurrDst(130043)
updateCurrDst(130095)
updateCurrDst(130202)
updateCurrDst(130307)
Heartbeat CPU 0 instructions: 81000001 cycles: 133180822 heartbeat IPC: 0.325879 cumulative IPC: 0.325749 (Simulation time: 0 hr 4 min 24 sec) 
updateCurrDst(130672)
updateCurrDst(130733)
updateCurrDst(130745)
*** Reached end of trace for Core: 0 Repeating trace: ./tracer/pull_u17_k4.xzafter: 81294807
Heartbeat CPU 0 instructions: 82000002 cycles: 136413631 heartbeat IPC: 0.309329 cumulative IPC: 0.325317 (Simulation time: 0 hr 4 min 30 sec) 
Heartbeat CPU 0 instructions: 83000001 cycles: 139617248 heartbeat IPC: 0.312147 cumulative IPC: 0.324983 (Simulation time: 0 hr 4 min 36 sec) 
Heartbeat CPU 0 instructions: 84000000 cycles: 142760965 heartbeat IPC: 0.318094 cumulative IPC: 0.324815 (Simulation time: 0 hr 4 min 42 sec) 
Finished CPU 0 instructions: 42000000 cycles: 129304214 cumulative IPC: 0.324815 (Simulation time: 0 hr 4 min 42 sec) 

ChampSim completed all CPUs

Region of Interest Statistics

CPU 0 cumulative IPC: 0.324815 instructions: 42000000 cycles: 129304214

Total ROB STALLS:                   15550608
STLB MISS ROB STALLS:                    752
L1D  LOAD MISS ROB STALLS:            555502  Translation MISS ROB STALLS:             0
L2C  LOAD MISS ROB STALLS:            144068  Translation MISS ROB STALLS:             0
LLC  LOAD MISS ROB STALLS:             57026  Translation MISS ROB STALLS:             0

ITLB TOTAL     ACCESS:           6075904  HIT:    6075877  MISS:         27  HIT %:    99.9996  MISS %: 0.000444378   MPKI: 0.000642857
ITLB LOAD TRANSLATION ACCESS:    6075904  HIT:    6075877  MISS:         27  HIT %:    99.9996  MISS %: 0.000444378   MPKI: 0.000642857
ITLB AVERAGE MISS LATENCY:        243.63 cycles
ITLB RQ ACCESS:     6559961	FORWARD:           0	MERGED:       484056	TO_CACHE:    6075905

DTLB TOTAL     ACCESS:          12555056  HIT:   12259626  MISS:     295430  HIT %:    97.6469  MISS %:    2.35308   MPKI: 7.03405
DTLB LOAD TRANSLATION ACCESS:   12555056  HIT:   12259626  MISS:     295430  HIT %:    97.6469  MISS %:    2.35308   MPKI: 7.03405
DTLB AVERAGE MISS LATENCY:       9.58242 cycles
DTLB RQ ACCESS:    17587655	FORWARD:           0	MERGED:      5032591	TO_CACHE:   12555064

STLB TOTAL     ACCESS:            295457  HIT:     294658  MISS:        799  HIT %:    99.7296  MISS %:   0.270429   MPKI: 0.0190238
STLB LOAD TRANSLATION ACCESS:     295457  HIT:     294658  MISS:        799  HIT %:    99.7296  MISS %:   0.270429   MPKI: 0.0190238
STLB AVERAGE MISS LATENCY:       223.277 cycles
STLB RQ ACCESS:      295457	FORWARD:           0	MERGED:            0	TO_CACHE:     295457

PSCL5 TOTAL     ACCESS:               799  HIT:        799  MISS:          0  HIT %:        100  MISS %:          0   MPKI: 0
PSCL5 LOAD TRANSLATION ACCESS:        799  HIT:        799  MISS:          0  HIT %:        100  MISS %:          0   MPKI: 0

PSCL4 TOTAL     ACCESS:               799  HIT:        799  MISS:          0  HIT %:        100  MISS %:          0   MPKI: 0
PSCL4 LOAD TRANSLATION ACCESS:        799  HIT:        799  MISS:          0  HIT %:        100  MISS %:          0   MPKI: 0

PSCL3 TOTAL     ACCESS:               799  HIT:        799  MISS:          0  HIT %:        100  MISS %:          0   MPKI: 0
PSCL3 LOAD TRANSLATION ACCESS:        799  HIT:        799  MISS:          0  HIT %:        100  MISS %:          0   MPKI: 0

PSCL2 TOTAL     ACCESS:               799  HIT:        798  MISS:          1  HIT %:    99.8748  MISS %:   0.125156   MPKI: 2.38095e-05
PSCL2 LOAD TRANSLATION ACCESS:        799  HIT:        798  MISS:          1  HIT %:    99.8748  MISS %:   0.125156   MPKI: 2.38095e-05

L1D TOTAL     ACCESS:          17575791  HIT:   17009968  MISS:     565823  HIT %:    96.7807  MISS %:    3.21933   MPKI: 13.472  USED:      99285  UNUSED:     466538
L1D LOAD      ACCESS:           8046449  HIT:    7490897  MISS:     555552  HIT %:    93.0957  MISS %:    6.90431   MPKI: 13.2274  USED:      99265  UNUSED:     456671
L1D RFO       ACCESS:           9529342  HIT:    9519071  MISS:      10271  HIT %:    99.8922  MISS %:   0.107783   MPKI: 0.244548
L1D PTL1 TRANSLATION ACCESS:          0  HIT:          0  MISS:          0  HIT %:       -nan  MISS %:       -nan   MPKI: 0
L1D PTL2 TRANSLATION ACCESS:          0  HIT:          0  MISS:          0  HIT %:       -nan  MISS %:       -nan   MPKI: 0
L1D PTL3 TRANSLATION ACCESS:          0  HIT:          0  MISS:          0  HIT %:       -nan  MISS %:       -nan   MPKI: 0
L1D PTL4 TRANSLATION ACCESS:          0  HIT:          0  MISS:          0  HIT %:       -nan  MISS %:       -nan   MPKI: 0
L1D PTL5 TRANSLATION ACCESS:          0  HIT:          0  MISS:          0  HIT %:       -nan  MISS %:       -nan   MPKI: 0
L1D TOTAL EVICTIONS:             565823  TRANSLATION EVICTIONS:          0  TRANSLATION EVICTING TRANSALTION:          0  TRANSLATION EVICTING LOAD:          0  LOAD EVICTING TRANSALTION:          0  LOAD EVICTING LOAD:      555081
L1D AVERAGE MISS LATENCY:        36.992 cycles  AVERAGE LOAD MISS LATENCY:       35.2615 cycles  AVERAGE LOAD TRANSLATION MISS LATENCY:          -nan cycles
L1D RQ ACCESS:    10746079	FORWARD:           0	MERGED:      1702713	TO_CACHE:    8046466
L1D WQ ACCESS:     9548614	FORWARD:      996900	MERGED:         7425	TO_CACHE:    9541189

L1I TOTAL     ACCESS:           6559952  HIT:    6559809  MISS:        143  HIT %:    99.9978  MISS %: 0.00217989   MPKI: 0.00340476
L1I LOAD      ACCESS:           6559952  HIT:    6559809  MISS:        143  HIT %:    99.9978  MISS %: 0.00217989   MPKI: 0.00340476
L1I AVERAGE MISS LATENCY:       194.734 cycles
L1I RQ ACCESS:    10149973	FORWARD:           0	MERGED:      3590012	TO_CACHE:    6559961

L2C TOTAL     ACCESS:            580168  HIT:     425629  MISS:     154539  HIT %:    73.3631  MISS %:    26.6369   MPKI: 3.6795  USED:      77109  UNUSED:      77430
L2C LOAD      ACCESS:            555695  HIT:     411434  MISS:     144261  HIT %:    74.0395  MISS %:    25.9605   MPKI: 3.43479  USED:      77109  UNUSED:      71311
L2C RFO       ACCESS:             10271  HIT:          0  MISS:      10271  HIT %:          0  MISS %:        100   MPKI: 0.244548
L2C WRITEBACK ACCESS:             14202  HIT:      14195  MISS:          7  HIT %:    99.9507  MISS %:  0.0492888   MPKI: 0.000166667
L2C PTL1 TRANSLATION ACCESS:          0  HIT:          0  MISS:          0  HIT %:       -nan  MISS %:       -nan   MPKI: 0
L2C PTL2 TRANSLATION ACCESS:          0  HIT:          0  MISS:          0  HIT %:       -nan  MISS %:       -nan   MPKI: 0
L2C PTL3 TRANSLATION ACCESS:          0  HIT:          0  MISS:          0  HIT %:       -nan  MISS %:       -nan   MPKI: 0
L2C PTL4 TRANSLATION ACCESS:          0  HIT:          0  MISS:          0  HIT %:       -nan  MISS %:       -nan   MPKI: 0
L2C PTL5 TRANSLATION ACCESS:          0  HIT:          0  MISS:          0  HIT %:       -nan  MISS %:       -nan   MPKI: 0
L2C TOTAL EVICTIONS:             154539  TRANSLATION EVICTIONS:          0  TRANSLATION EVICTING TRANSALTION:          0  TRANSLATION EVICTING LOAD:          0  LOAD EVICTING TRANSALTION:          0  LOAD EVICTING LOAD:      141454
L2C AVERAGE MISS LATENCY:       80.6876 cycles  AVERAGE LOAD MISS LATENCY:       78.2063 cycles  AVERAGE LOAD TRANSLATION MISS LATENCY:          -nan cycles
L2C RQ ACCESS:      565967	FORWARD:           0	MERGED:            0	TO_CACHE:     565967
L2C WQ ACCESS:       14202	FORWARD:           0	MERGED:            0	TO_CACHE:      14202

LLC TOTAL     ACCESS:            165061  HIT:      97674  MISS:      67387  HIT %:    59.1745  MISS %:    40.8255   MPKI: 1.60445  USED:          0  UNUSED:          0
LLC LOAD      ACCESS:            144261  HIT:      87041  MISS:      57220  HIT %:    60.3358  MISS %:    39.6642   MPKI: 1.36238  USED:          0  UNUSED:          0
LLC RFO       ACCESS:             10271  HIT:        125  MISS:      10146  HIT %:    1.21702  MISS %:     98.783   MPKI: 0.241571
LLC WRITEBACK ACCESS:             10529  HIT:      10508  MISS:         21  HIT %:    99.8006  MISS %:   0.199449   MPKI: 0.0005
LLC PTL1 TRANSLATION ACCESS:          0  HIT:          0  MISS:          0  HIT %:       -nan  MISS %:       -nan   MPKI: 0
LLC PTL2 TRANSLATION ACCESS:          0  HIT:          0  MISS:          0  HIT %:       -nan  MISS %:       -nan   MPKI: 0
LLC PTL3 TRANSLATION ACCESS:          0  HIT:          0  MISS:          0  HIT %:       -nan  MISS %:       -nan   MPKI: 0
LLC PTL4 TRANSLATION ACCESS:          0  HIT:          0  MISS:          0  HIT %:       -nan  MISS %:       -nan   MPKI: 0
LLC PTL5 TRANSLATION ACCESS:          0  HIT:          0  MISS:          0  HIT %:       -nan  MISS %:       -nan   MPKI: 0
LLC TOTAL EVICTIONS:                  0  TRANSLATION EVICTIONS:          0  TRANSLATION EVICTING TRANSALTION:          0  TRANSLATION EVICTING LOAD:          0  LOAD EVICTING TRANSALTION:          0  LOAD EVICTING LOAD:           0
LLC AVERAGE MISS LATENCY:       116.241 cycles  AVERAGE LOAD MISS LATENCY:       121.531 cycles  AVERAGE LOAD TRANSLATION MISS LATENCY:          -nan cycles
LLC RQ ACCESS:      154533	FORWARD:           0	MERGED:            0	TO_CACHE:     154533
LLC WQ ACCESS:       10529	FORWARD:           0	MERGED:            0	TO_CACHE:      10529


RAW hits: 7153335
Loads Generated: 17899414
Loads sent to L1D: 10746079
Stores Generated: 9548610
Stores sent to L1D: 9548614
Major fault: 0 Minor fault: 1921
Allocated PAGES: 1921
IRREG DATA L1D ACCESS: 1048532
L2C ACCESSES: 959609
L2C MISSES: 171308

DRAM Statistics
 CHANNEL 0
 RQ ROW_BUFFER_HIT:      36233  ROW_BUFFER_MISS:      31933
 DBUS_CONGESTED:          2
 WQ ROW_BUFFER_HIT:         89  ROW_BUFFER_MISS:       5951  FULL:          0

 AVG_CONGESTED_CYCLE: 8

CPU 0 Branch Prediction Accuracy: 98.6789% MPKI: 1.62429 Average ROB Occupancy at Mispredict: 17.3168
Branch types
NOT_BRANCH: 36836286 87.7054%
BRANCH_DIRECT_JUMP: 0 0%
BRANCH_INDIRECT: 694812 1.65431%
BRANCH_CONDITIONAL: 0 0%
BRANCH_DIRECT_CALL: 68121 0.162193%
BRANCH_INDIRECT_CALL: 1716212 4.08622%
BRANCH_RETURN: 1784334 4.24841%
BRANCH_OTHER: 900237 2.14342%

DRAM PAGES: 1048576
Allocated PAGES: 1921
