
*** ChampSim Multicore Out-of-Order Simulator ***

Warmup Instructions: 42000000
Simulation Instructions: 42000000
Number of CPUs: 1
LLC sets: 2048
LLC ways: 16
Off-chip DRAM Size: 4096 MB Channels: 1 Width: 64-bit Data Rate: 6400 MT/s
CPU 0 runs ./tracer/pull_u17_k4.xz
.xz
BTB has LRU replacement policy
ITLB has LRU replacement policy
DTLB has LRU replacement policy
STLB has LRU replacement policy
L1I has LRU replacement policy
L1D has LRU replacement policy
L2C has LRU replacement policy
LLC has LRU replacement policy
Heartbeat CPU 0 instructions: 1000001 cycles: 346727 heartbeat IPC: 2.88412 cumulative IPC: 2.88412 (Simulation time: 0 hr 0 min 3 sec) 
Heartbeat CPU 0 instructions: 2000000 cycles: 693435 heartbeat IPC: 2.88427 cumulative IPC: 2.88419 (Simulation time: 0 hr 0 min 5 sec) 
Heartbeat CPU 0 instructions: 3000002 cycles: 1040145 heartbeat IPC: 2.88426 cumulative IPC: 2.88422 (Simulation time: 0 hr 0 min 8 sec) 
PIN_registerGraphs(random_u17_k4.sg,1)
Graphh Number of Nodes: 131072
Heartbeat CPU 0 instructions: 4000002 cycles: 1381288 heartbeat IPC: 2.93132 cumulative IPC: 2.89585 (Simulation time: 0 hr 0 min 10 sec) 
Heartbeat CPU 0 instructions: 5000001 cycles: 1714552 heartbeat IPC: 3.00062 cumulative IPC: 2.91621 (Simulation time: 0 hr 0 min 11 sec) 
PIN_updateRegBaseBound( 94494678814928, 94494679339216)
updateCurrDst(513)
Heartbeat CPU 0 instructions: 6000001 cycles: 2042519 heartbeat IPC: 3.04909 cumulative IPC: 2.93755 (Simulation time: 0 hr 0 min 13 sec) 
updateCurrDst(597)
updateCurrDst(607)
updateCurrDst(612)
updateCurrDst(648)
updateCurrDst(722)
updateCurrDst(732)
updateCurrDst(913)
updateCurrDst(982)
updateCurrDst(1033)
updateCurrDst(1054)
updateCurrDst(1081)
updateCurrDst(1133)
updateCurrDst(1146)
updateCurrDst(1218)
updateCurrDst(1339)
updateCurrDst(1509)
updateCurrDst(1677)
updateCurrDst(1768)
updateCurrDst(1937)
updateCurrDst(1957)
updateCurrDst(2061)
updateCurrDst(2083)
Heartbeat CPU 0 instructions: 7000001 cycles: 2359626 heartbeat IPC: 3.15351 cumulative IPC: 2.96657 (Simulation time: 0 hr 0 min 16 sec) 
updateCurrDst(2569)
updateCurrDst(2582)
updateCurrDst(2587)
updateCurrDst(2595)
updateCurrDst(2669)
updateCurrDst(2792)
updateCurrDst(2815)
updateCurrDst(2817)
updateCurrDst(2935)
updateCurrDst(3012)
updateCurrDst(3158)
updateCurrDst(3264)
updateCurrDst(3406)
updateCurrDst(3429)
updateCurrDst(3444)
updateCurrDst(3480)
updateCurrDst(3501)
updateCurrDst(3563)
updateCurrDst(3957)
updateCurrDst(4020)
Heartbeat CPU 0 instructions: 8000003 cycles: 2676345 heartbeat IPC: 3.15738 cumulative IPC: 2.98915 (Simulation time: 0 hr 0 min 19 sec) 
updateCurrDst(4135)
updateCurrDst(4156)
updateCurrDst(4192)
updateCurrDst(4443)
updateCurrDst(4766)
updateCurrDst(4818)
updateCurrDst(5021)
updateCurrDst(5377)
updateCurrDst(5601)
updateCurrDst(5719)
Heartbeat CPU 0 instructions: 9000002 cycles: 2993428 heartbeat IPC: 3.15375 cumulative IPC: 3.00659 (Simulation time: 0 hr 0 min 22 sec) 
updateCurrDst(5918)
updateCurrDst(5973)
updateCurrDst(6034)
updateCurrDst(6408)
updateCurrDst(6587)
updateCurrDst(6690)
updateCurrDst(6747)
updateCurrDst(6780)
updateCurrDst(6808)
updateCurrDst(6876)
updateCurrDst(6916)
updateCurrDst(6995)
updateCurrDst(7111)
updateCurrDst(7142)
updateCurrDst(7252)
Heartbeat CPU 0 instructions: 10000003 cycles: 3310750 heartbeat IPC: 3.15138 cumulative IPC: 3.02046 (Simulation time: 0 hr 0 min 25 sec) 
updateCurrDst(7560)
updateCurrDst(7561)
updateCurrDst(7650)
updateCurrDst(7735)
updateCurrDst(7741)
updateCurrDst(7896)
updateCurrDst(8049)
updateCurrDst(8381)
updateCurrDst(8683)
updateCurrDst(8849)
updateCurrDst(8889)
updateCurrDst(8969)
updateCurrDst(8982)
updateCurrDst(8995)
updateCurrDst(9020)
Heartbeat CPU 0 instructions: 11000000 cycles: 3627745 heartbeat IPC: 3.15461 cumulative IPC: 3.03219 (Simulation time: 0 hr 0 min 28 sec) 
updateCurrDst(9621)
updateCurrDst(9718)
updateCurrDst(9806)
updateCurrDst(9849)
updateCurrDst(9851)
updateCurrDst(9988)
updateCurrDst(9996)
updateCurrDst(10034)
updateCurrDst(10106)
updateCurrDst(10147)
updateCurrDst(10419)
updateCurrDst(10521)
updateCurrDst(10599)
updateCurrDst(10801)
updateCurrDst(10802)
updateCurrDst(10855)
updateCurrDst(10904)
Heartbeat CPU 0 instructions: 12000001 cycles: 3944842 heartbeat IPC: 3.15361 cumulative IPC: 3.04195 (Simulation time: 0 hr 0 min 31 sec) 
updateCurrDst(11030)
updateCurrDst(11183)
updateCurrDst(11305)
updateCurrDst(11786)
updateCurrDst(11792)
updateCurrDst(11799)
updateCurrDst(12202)
updateCurrDst(12367)
updateCurrDst(12592)
updateCurrDst(12675)
updateCurrDst(12678)
Heartbeat CPU 0 instructions: 13000001 cycles: 4261643 heartbeat IPC: 3.15656 cumulative IPC: 3.05047 (Simulation time: 0 hr 0 min 34 sec) 
updateCurrDst(12850)
updateCurrDst(12894)
updateCurrDst(13007)
updateCurrDst(13041)
updateCurrDst(13624)
updateCurrDst(13642)
updateCurrDst(13749)
updateCurrDst(13757)
updateCurrDst(13782)
updateCurrDst(13788)
updateCurrDst(13816)
updateCurrDst(13914)
updateCurrDst(14068)
updateCurrDst(14410)
updateCurrDst(14412)
Heartbeat CPU 0 instructions: 14000002 cycles: 4578664 heartbeat IPC: 3.15437 cumulative IPC: 3.05766 (Simulation time: 0 hr 0 min 37 sec) 
updateCurrDst(14447)
updateCurrDst(14763)
updateCurrDst(14927)
updateCurrDst(14934)
updateCurrDst(15011)
updateCurrDst(15062)
updateCurrDst(15333)
updateCurrDst(15572)
updateCurrDst(15579)
updateCurrDst(15688)
updateCurrDst(15699)
updateCurrDst(15740)
updateCurrDst(15818)
updateCurrDst(15861)
updateCurrDst(15864)
updateCurrDst(15903)
updateCurrDst(16022)
Heartbeat CPU 0 instructions: 15000002 cycles: 4895636 heartbeat IPC: 3.15485 cumulative IPC: 3.06395 (Simulation time: 0 hr 0 min 40 sec) 
updateCurrDst(16270)
updateCurrDst(16417)
updateCurrDst(16733)
updateCurrDst(17272)
updateCurrDst(17274)
updateCurrDst(17290)
updateCurrDst(17327)
updateCurrDst(17519)
updateCurrDst(17644)
updateCurrDst(17778)
updateCurrDst(17837)
Heartbeat CPU 0 instructions: 16000001 cycles: 5212595 heartbeat IPC: 3.15498 cumulative IPC: 3.06949 (Simulation time: 0 hr 0 min 43 sec) 
updateCurrDst(17884)
updateCurrDst(17887)
updateCurrDst(17890)
updateCurrDst(17958)
updateCurrDst(18136)
updateCurrDst(18340)
updateCurrDst(18397)
updateCurrDst(18405)
updateCurrDst(18428)
updateCurrDst(18466)
updateCurrDst(18784)
updateCurrDst(18816)
updateCurrDst(18847)
updateCurrDst(18857)
updateCurrDst(18976)
updateCurrDst(19168)
updateCurrDst(19458)
updateCurrDst(19518)
updateCurrDst(19578)
Heartbeat CPU 0 instructions: 17000002 cycles: 5529463 heartbeat IPC: 3.15589 cumulative IPC: 3.07444 (Simulation time: 0 hr 0 min 46 sec) 
updateCurrDst(19730)
updateCurrDst(19743)
updateCurrDst(19774)
updateCurrDst(19816)
updateCurrDst(19825)
updateCurrDst(19842)
updateCurrDst(19907)
updateCurrDst(19981)
updateCurrDst(20134)
updateCurrDst(20208)
updateCurrDst(20427)
updateCurrDst(20580)
updateCurrDst(20594)
updateCurrDst(20924)
updateCurrDst(21031)
updateCurrDst(21101)
updateCurrDst(21186)
updateCurrDst(21188)
updateCurrDst(21232)
updateCurrDst(21245)
updateCurrDst(21282)
Heartbeat CPU 0 instructions: 18000003 cycles: 5846275 heartbeat IPC: 3.15645 cumulative IPC: 3.07888 (Simulation time: 0 hr 0 min 49 sec) 
updateCurrDst(21352)
updateCurrDst(21369)
updateCurrDst(21620)
updateCurrDst(21764)
updateCurrDst(21766)
updateCurrDst(21896)
updateCurrDst(22057)
updateCurrDst(22277)
updateCurrDst(22593)
updateCurrDst(22648)
updateCurrDst(22723)
updateCurrDst(22787)
updateCurrDst(22789)
updateCurrDst(22809)
updateCurrDst(22827)
updateCurrDst(22985)
Heartbeat CPU 0 instructions: 19000001 cycles: 6163438 heartbeat IPC: 3.15295 cumulative IPC: 3.0827 (Simulation time: 0 hr 0 min 52 sec) 
updateCurrDst(23145)
updateCurrDst(23176)
updateCurrDst(23262)
updateCurrDst(23280)
updateCurrDst(23719)
updateCurrDst(23728)
updateCurrDst(23788)
updateCurrDst(23810)
updateCurrDst(24004)
updateCurrDst(24011)
updateCurrDst(24165)
updateCurrDst(24199)
updateCurrDst(24481)
updateCurrDst(24598)
updateCurrDst(24606)
updateCurrDst(24719)
updateCurrDst(24782)
Heartbeat CPU 0 instructions: 20000003 cycles: 6480325 heartbeat IPC: 3.15571 cumulative IPC: 3.08627 (Simulation time: 0 hr 0 min 55 sec) 
updateCurrDst(24839)
updateCurrDst(24912)
updateCurrDst(25185)
updateCurrDst(25219)
updateCurrDst(25271)
updateCurrDst(25534)
updateCurrDst(25642)
updateCurrDst(25711)
updateCurrDst(25909)
updateCurrDst(26031)
updateCurrDst(26126)
updateCurrDst(26138)
updateCurrDst(26237)
updateCurrDst(26252)
updateCurrDst(26297)
updateCurrDst(26507)
Heartbeat CPU 0 instructions: 21000000 cycles: 6797268 heartbeat IPC: 3.15513 cumulative IPC: 3.08948 (Simulation time: 0 hr 0 min 58 sec) 
updateCurrDst(26578)
updateCurrDst(26659)
updateCurrDst(26878)
updateCurrDst(26879)
updateCurrDst(27000)
updateCurrDst(27076)
updateCurrDst(27271)
updateCurrDst(27393)
updateCurrDst(27431)
updateCurrDst(27513)
updateCurrDst(27530)
updateCurrDst(27650)
updateCurrDst(27721)
updateCurrDst(27753)
updateCurrDst(27995)
updateCurrDst(28083)
updateCurrDst(28090)
updateCurrDst(28186)
updateCurrDst(28212)
updateCurrDst(28219)
updateCurrDst(28249)
Heartbeat CPU 0 instructions: 22000000 cycles: 7114289 heartbeat IPC: 3.15437 cumulative IPC: 3.09237 (Simulation time: 0 hr 1 min 1 sec) 
updateCurrDst(28363)
updateCurrDst(28416)
updateCurrDst(28474)
updateCurrDst(28743)
updateCurrDst(28829)
updateCurrDst(28966)
updateCurrDst(29019)
updateCurrDst(29085)
updateCurrDst(29265)
updateCurrDst(29474)
updateCurrDst(29544)
updateCurrDst(29579)
updateCurrDst(29769)
updateCurrDst(29793)
updateCurrDst(29955)
Heartbeat CPU 0 instructions: 23000000 cycles: 7431359 heartbeat IPC: 3.15388 cumulative IPC: 3.09499 (Simulation time: 0 hr 1 min 4 sec) 
updateCurrDst(30212)
updateCurrDst(30441)
updateCurrDst(30558)
updateCurrDst(30568)
updateCurrDst(30607)
updateCurrDst(30740)
updateCurrDst(30980)
updateCurrDst(31290)
updateCurrDst(31341)
updateCurrDst(31450)
updateCurrDst(31547)
updateCurrDst(31558)
updateCurrDst(31669)
Heartbeat CPU 0 instructions: 24000002 cycles: 7748394 heartbeat IPC: 3.15423 cumulative IPC: 3.09742 (Simulation time: 0 hr 1 min 7 sec) 
updateCurrDst(31751)
updateCurrDst(31794)
updateCurrDst(31827)
updateCurrDst(31947)
updateCurrDst(32009)
updateCurrDst(32070)
updateCurrDst(32118)
updateCurrDst(32121)
updateCurrDst(32213)
updateCurrDst(32287)
updateCurrDst(32359)
updateCurrDst(32753)
updateCurrDst(32804)
updateCurrDst(32963)
updateCurrDst(33073)
updateCurrDst(33243)
updateCurrDst(33298)
Heartbeat CPU 0 instructions: 25000000 cycles: 8065778 heartbeat IPC: 3.15075 cumulative IPC: 3.09951 (Simulation time: 0 hr 1 min 10 sec) 
updateCurrDst(33543)
updateCurrDst(33584)
updateCurrDst(33629)
updateCurrDst(33702)
updateCurrDst(33914)
updateCurrDst(33998)
updateCurrDst(34138)
updateCurrDst(34141)
updateCurrDst(34182)
updateCurrDst(34221)
updateCurrDst(34497)
updateCurrDst(34569)
updateCurrDst(34746)
updateCurrDst(34756)
updateCurrDst(34758)
updateCurrDst(34771)
updateCurrDst(34798)
updateCurrDst(34934)
updateCurrDst(34936)
updateCurrDst(35182)
Heartbeat CPU 0 instructions: 26000002 cycles: 8382584 heartbeat IPC: 3.15651 cumulative IPC: 3.10167 (Simulation time: 0 hr 1 min 14 sec) 
updateCurrDst(35310)
updateCurrDst(35316)
updateCurrDst(35424)
updateCurrDst(35577)
updateCurrDst(35628)
updateCurrDst(35734)
updateCurrDst(35925)
updateCurrDst(36003)
updateCurrDst(36066)
updateCurrDst(36100)
updateCurrDst(36585)
updateCurrDst(36595)
updateCurrDst(36725)
updateCurrDst(36796)
updateCurrDst(36835)
Heartbeat CPU 0 instructions: 27000000 cycles: 8699517 heartbeat IPC: 3.15523 cumulative IPC: 3.10362 (Simulation time: 0 hr 1 min 17 sec) 
updateCurrDst(36949)
updateCurrDst(37186)
updateCurrDst(37318)
updateCurrDst(37416)
updateCurrDst(37446)
updateCurrDst(37558)
updateCurrDst(37597)
updateCurrDst(37599)
updateCurrDst(37790)
updateCurrDst(37851)
updateCurrDst(38167)
updateCurrDst(38247)
updateCurrDst(38308)
updateCurrDst(38316)
updateCurrDst(38423)
updateCurrDst(38460)
updateCurrDst(38479)
Heartbeat CPU 0 instructions: 28000000 cycles: 9016580 heartbeat IPC: 3.15395 cumulative IPC: 3.10539 (Simulation time: 0 hr 1 min 21 sec) 
updateCurrDst(38659)
updateCurrDst(38668)
updateCurrDst(38840)
updateCurrDst(39030)
updateCurrDst(39071)
updateCurrDst(39227)
updateCurrDst(39265)
updateCurrDst(39331)
updateCurrDst(39364)
updateCurrDst(39382)
updateCurrDst(39473)
updateCurrDst(39487)
updateCurrDst(39564)
updateCurrDst(39580)
updateCurrDst(39587)
updateCurrDst(39595)
updateCurrDst(39726)
updateCurrDst(39834)
updateCurrDst(39843)
updateCurrDst(40013)
updateCurrDst(40178)
updateCurrDst(40316)
Heartbeat CPU 0 instructions: 29000001 cycles: 9333679 heartbeat IPC: 3.15359 cumulative IPC: 3.10703 (Simulation time: 0 hr 1 min 24 sec) 
updateCurrDst(40411)
updateCurrDst(40503)
updateCurrDst(40721)
updateCurrDst(40804)
updateCurrDst(40924)
updateCurrDst(40957)
updateCurrDst(41054)
updateCurrDst(41066)
updateCurrDst(41090)
updateCurrDst(41112)
updateCurrDst(41120)
updateCurrDst(41290)
updateCurrDst(41345)
updateCurrDst(41484)
updateCurrDst(41498)
updateCurrDst(41811)
updateCurrDst(41913)
updateCurrDst(41915)
updateCurrDst(42011)
updateCurrDst(42083)
Heartbeat CPU 0 instructions: 30000001 cycles: 9651011 heartbeat IPC: 3.15127 cumulative IPC: 3.10848 (Simulation time: 0 hr 1 min 28 sec) 
updateCurrDst(42324)
updateCurrDst(42380)
updateCurrDst(42383)
updateCurrDst(42495)
updateCurrDst(42567)
updateCurrDst(42598)
updateCurrDst(42611)
updateCurrDst(42778)
updateCurrDst(42935)
updateCurrDst(43096)
updateCurrDst(43107)
updateCurrDst(43108)
updateCurrDst(43119)
updateCurrDst(43189)
updateCurrDst(43317)
updateCurrDst(43423)
updateCurrDst(43424)
updateCurrDst(43450)
updateCurrDst(43539)
updateCurrDst(43557)
updateCurrDst(43611)
updateCurrDst(43616)
updateCurrDst(43756)
updateCurrDst(43815)
Heartbeat CPU 0 instructions: 31000000 cycles: 9968251 heartbeat IPC: 3.15218 cumulative IPC: 3.10987 (Simulation time: 0 hr 1 min 31 sec) 
updateCurrDst(44237)
updateCurrDst(44407)
updateCurrDst(44669)
updateCurrDst(44765)
updateCurrDst(44979)
updateCurrDst(44988)
updateCurrDst(45018)
updateCurrDst(45202)
updateCurrDst(45211)
updateCurrDst(45270)
updateCurrDst(45294)
updateCurrDst(45424)
updateCurrDst(45530)
Heartbeat CPU 0 instructions: 32000001 cycles: 10285472 heartbeat IPC: 3.15238 cumulative IPC: 3.11118 (Simulation time: 0 hr 1 min 34 sec) 
updateCurrDst(45615)
updateCurrDst(45640)
updateCurrDst(45807)
updateCurrDst(45813)
updateCurrDst(45834)
updateCurrDst(45892)
updateCurrDst(45916)
updateCurrDst(45990)
updateCurrDst(46195)
updateCurrDst(46626)
updateCurrDst(46630)
updateCurrDst(46711)
updateCurrDst(47023)
updateCurrDst(47051)
updateCurrDst(47208)
updateCurrDst(47293)
Heartbeat CPU 0 instructions: 33000000 cycles: 10602355 heartbeat IPC: 3.15574 cumulative IPC: 3.11252 (Simulation time: 0 hr 1 min 37 sec) 
updateCurrDst(47346)
updateCurrDst(47375)
updateCurrDst(47587)
updateCurrDst(47675)
updateCurrDst(47787)
updateCurrDst(47812)
updateCurrDst(47866)
updateCurrDst(48035)
updateCurrDst(48126)
updateCurrDst(48136)
updateCurrDst(48266)
updateCurrDst(48473)
updateCurrDst(48546)
updateCurrDst(48578)
updateCurrDst(48619)
updateCurrDst(48644)
updateCurrDst(48759)
updateCurrDst(48793)
updateCurrDst(48836)
updateCurrDst(48899)
updateCurrDst(48931)
updateCurrDst(48945)
Heartbeat CPU 0 instructions: 34000000 cycles: 10919395 heartbeat IPC: 3.15418 cumulative IPC: 3.11373 (Simulation time: 0 hr 1 min 40 sec) 
updateCurrDst(49111)
updateCurrDst(49312)
updateCurrDst(49316)
updateCurrDst(49470)
updateCurrDst(49522)
updateCurrDst(49556)
updateCurrDst(49588)
updateCurrDst(49591)
updateCurrDst(49614)
updateCurrDst(49647)
updateCurrDst(49743)
updateCurrDst(49863)
updateCurrDst(49992)
updateCurrDst(50018)
updateCurrDst(50060)
updateCurrDst(50142)
updateCurrDst(50537)
updateCurrDst(50578)
updateCurrDst(50645)
updateCurrDst(50719)
Heartbeat CPU 0 instructions: 35000002 cycles: 11236821 heartbeat IPC: 3.15035 cumulative IPC: 3.11476 (Simulation time: 0 hr 1 min 43 sec) 
updateCurrDst(50834)
updateCurrDst(50997)
updateCurrDst(51145)
updateCurrDst(51237)
updateCurrDst(51272)
updateCurrDst(51367)
updateCurrDst(51408)
updateCurrDst(51424)
updateCurrDst(51439)
updateCurrDst(51559)
updateCurrDst(51576)
updateCurrDst(51639)
updateCurrDst(51679)
updateCurrDst(51761)
updateCurrDst(51814)
updateCurrDst(51964)
updateCurrDst(51973)
updateCurrDst(52248)
Heartbeat CPU 0 instructions: 36000000 cycles: 11553765 heartbeat IPC: 3.15513 cumulative IPC: 3.11587 (Simulation time: 0 hr 1 min 46 sec) 
updateCurrDst(52532)
updateCurrDst(52620)
updateCurrDst(52797)
updateCurrDst(52798)
updateCurrDst(52808)
updateCurrDst(53154)
updateCurrDst(53223)
updateCurrDst(53306)
updateCurrDst(53727)
updateCurrDst(53776)
updateCurrDst(53800)
updateCurrDst(54087)
updateCurrDst(54092)
Heartbeat CPU 0 instructions: 37000000 cycles: 11870825 heartbeat IPC: 3.15398 cumulative IPC: 3.11689 (Simulation time: 0 hr 1 min 49 sec) 
updateCurrDst(54378)
updateCurrDst(54412)
updateCurrDst(54415)
updateCurrDst(54431)
updateCurrDst(54649)
updateCurrDst(54923)
updateCurrDst(54997)
updateCurrDst(55365)
updateCurrDst(55385)
updateCurrDst(55572)
updateCurrDst(55586)
updateCurrDst(55773)
updateCurrDst(55790)
updateCurrDst(55806)
Heartbeat CPU 0 instructions: 38000001 cycles: 12188083 heartbeat IPC: 3.15201 cumulative IPC: 3.1178 (Simulation time: 0 hr 1 min 52 sec) 
updateCurrDst(56495)
updateCurrDst(56823)
updateCurrDst(56941)
updateCurrDst(57032)
updateCurrDst(57049)
updateCurrDst(57063)
updateCurrDst(57163)
updateCurrDst(57319)
updateCurrDst(57383)
updateCurrDst(57429)
updateCurrDst(57698)
Heartbeat CPU 0 instructions: 39000002 cycles: 12505156 heartbeat IPC: 3.15385 cumulative IPC: 3.11871 (Simulation time: 0 hr 1 min 55 sec) 
updateCurrDst(57767)
updateCurrDst(57958)
updateCurrDst(58136)
updateCurrDst(58269)
updateCurrDst(58289)
updateCurrDst(58298)
updateCurrDst(58321)
updateCurrDst(58476)
updateCurrDst(58516)
updateCurrDst(58621)
updateCurrDst(58664)
updateCurrDst(58879)
updateCurrDst(59018)
updateCurrDst(59067)
updateCurrDst(59155)
updateCurrDst(59236)
updateCurrDst(59273)
updateCurrDst(59308)
updateCurrDst(59442)
updateCurrDst(59462)
updateCurrDst(59472)
Heartbeat CPU 0 instructions: 40000003 cycles: 12822450 heartbeat IPC: 3.15165 cumulative IPC: 3.11953 (Simulation time: 0 hr 1 min 58 sec) 
updateCurrDst(59489)
updateCurrDst(59601)
updateCurrDst(59701)
updateCurrDst(59753)
updateCurrDst(59848)
updateCurrDst(59976)
updateCurrDst(60067)
updateCurrDst(60107)
updateCurrDst(60166)
updateCurrDst(60254)
updateCurrDst(60646)
updateCurrDst(60717)
updateCurrDst(60920)
updateCurrDst(61017)
Heartbeat CPU 0 instructions: 41000000 cycles: 13139607 heartbeat IPC: 3.153 cumulative IPC: 3.12034 (Simulation time: 0 hr 2 min 1 sec) 
updateCurrDst(61403)
updateCurrDst(61427)
updateCurrDst(61510)
updateCurrDst(61620)
updateCurrDst(61640)
updateCurrDst(61650)
updateCurrDst(61703)
updateCurrDst(61961)
updateCurrDst(61968)
updateCurrDst(62038)
updateCurrDst(62115)
updateCurrDst(62198)
updateCurrDst(62283)
updateCurrDst(62571)
updateCurrDst(62735)
updateCurrDst(62768)
updateCurrDst(62863)
updateCurrDst(62871)
updateCurrDst(62891)
updateCurrDst(62920)
Heartbeat CPU 0 instructions: 42000001 cycles: 13456777 heartbeat IPC: 3.15289 cumulative IPC: 3.1211 (Simulation time: 0 hr 2 min 4 sec) 

Warmup complete CPU 0 instructions: 42000001 cycles: 13456777 (Simulation time: 0 hr 2 min 4 sec) 

updateCurrDst(62995)
updateCurrDst(63005)
updateCurrDst(63016)
updateCurrDst(63097)
updateCurrDst(63490)
updateCurrDst(63499)
updateCurrDst(63631)
updateCurrDst(63901)
updateCurrDst(63935)
updateCurrDst(64018)
updateCurrDst(64074)
updateCurrDst(64106)
updateCurrDst(64242)
updateCurrDst(64415)
updateCurrDst(64468)
updateCurrDst(64517)
Heartbeat CPU 0 instructions: 43000001 cycles: 16538222 heartbeat IPC: 0.324523 cumulative IPC: 0.324523 (Simulation time: 0 hr 2 min 8 sec) 
updateCurrDst(64790)
updateCurrDst(64962)
updateCurrDst(64972)
updateCurrDst(65267)
updateCurrDst(65671)
updateCurrDst(65674)
updateCurrDst(65878)
updateCurrDst(66094)
updateCurrDst(66209)
updateCurrDst(66226)
updateCurrDst(66299)
Heartbeat CPU 0 instructions: 44000000 cycles: 19611559 heartbeat IPC: 0.325379 cumulative IPC: 0.32495 (Simulation time: 0 hr 2 min 11 sec) 
updateCurrDst(66429)
updateCurrDst(66751)
updateCurrDst(66848)
updateCurrDst(66865)
updateCurrDst(67048)
updateCurrDst(67074)
updateCurrDst(67213)
updateCurrDst(67528)
updateCurrDst(67607)
updateCurrDst(67628)
updateCurrDst(67700)
updateCurrDst(67769)
updateCurrDst(67859)
updateCurrDst(67911)
updateCurrDst(67931)
updateCurrDst(67948)
updateCurrDst(68154)
Heartbeat CPU 0 instructions: 45000000 cycles: 22678727 heartbeat IPC: 0.326034 cumulative IPC: 0.325311 (Simulation time: 0 hr 2 min 15 sec) 
updateCurrDst(68180)
updateCurrDst(68237)
updateCurrDst(68331)
updateCurrDst(68398)
updateCurrDst(68468)
updateCurrDst(68609)
updateCurrDst(68613)
updateCurrDst(68694)
updateCurrDst(68750)
updateCurrDst(68890)
updateCurrDst(69027)
updateCurrDst(69043)
updateCurrDst(69137)
updateCurrDst(69419)
updateCurrDst(69617)
Heartbeat CPU 0 instructions: 46000003 cycles: 25759019 heartbeat IPC: 0.324646 cumulative IPC: 0.325144 (Simulation time: 0 hr 2 min 19 sec) 
updateCurrDst(69964)
updateCurrDst(70081)
updateCurrDst(70609)
updateCurrDst(70668)
updateCurrDst(70691)
updateCurrDst(70720)
updateCurrDst(70763)
updateCurrDst(70953)
updateCurrDst(71037)
updateCurrDst(71241)
updateCurrDst(71337)
updateCurrDst(71447)
updateCurrDst(71495)
Heartbeat CPU 0 instructions: 47000000 cycles: 28828440 heartbeat IPC: 0.325793 cumulative IPC: 0.325274 (Simulation time: 0 hr 2 min 23 sec) 
updateCurrDst(71757)
updateCurrDst(71957)
updateCurrDst(72036)
updateCurrDst(72141)
updateCurrDst(72142)
updateCurrDst(72223)
updateCurrDst(72358)
updateCurrDst(72429)
updateCurrDst(72490)
updateCurrDst(72611)
updateCurrDst(72677)
updateCurrDst(72747)
updateCurrDst(72876)
updateCurrDst(73133)
updateCurrDst(73221)
updateCurrDst(73236)
Heartbeat CPU 0 instructions: 48000002 cycles: 31902345 heartbeat IPC: 0.32532 cumulative IPC: 0.325281 (Simulation time: 0 hr 2 min 27 sec) 
updateCurrDst(73400)
updateCurrDst(73633)
updateCurrDst(73636)
updateCurrDst(74044)
updateCurrDst(74094)
updateCurrDst(74144)
updateCurrDst(74304)
updateCurrDst(74437)
updateCurrDst(74478)
updateCurrDst(74523)
updateCurrDst(74674)
updateCurrDst(74785)
updateCurrDst(74895)
updateCurrDst(74917)
Heartbeat CPU 0 instructions: 49000001 cycles: 34979433 heartbeat IPC: 0.324982 cumulative IPC: 0.325239 (Simulation time: 0 hr 2 min 30 sec) 
updateCurrDst(75207)
updateCurrDst(75300)
updateCurrDst(75496)
updateCurrDst(75537)
updateCurrDst(75607)
updateCurrDst(75663)
updateCurrDst(75703)
updateCurrDst(75756)
updateCurrDst(75758)
updateCurrDst(75771)
updateCurrDst(75795)
updateCurrDst(75912)
updateCurrDst(76018)
updateCurrDst(76360)
updateCurrDst(76434)
updateCurrDst(76538)
updateCurrDst(76764)
updateCurrDst(76791)
Heartbeat CPU 0 instructions: 50000000 cycles: 38055377 heartbeat IPC: 0.325103 cumulative IPC: 0.325222 (Simulation time: 0 hr 2 min 34 sec) 
updateCurrDst(76819)
updateCurrDst(76882)
updateCurrDst(76900)
updateCurrDst(76967)
updateCurrDst(77133)
updateCurrDst(77181)
updateCurrDst(77191)
updateCurrDst(77283)
updateCurrDst(77536)
updateCurrDst(77738)
updateCurrDst(77776)
updateCurrDst(77851)
updateCurrDst(77904)
updateCurrDst(77954)
updateCurrDst(78032)
updateCurrDst(78102)
updateCurrDst(78135)
updateCurrDst(78144)
updateCurrDst(78243)
updateCurrDst(78256)
updateCurrDst(78288)
updateCurrDst(78295)
Heartbeat CPU 0 instructions: 51000003 cycles: 41122715 heartbeat IPC: 0.326017 cumulative IPC: 0.32531 (Simulation time: 0 hr 2 min 37 sec) 
updateCurrDst(78845)
updateCurrDst(78872)
updateCurrDst(78999)
updateCurrDst(79122)
updateCurrDst(79203)
updateCurrDst(79208)
updateCurrDst(79320)
updateCurrDst(79441)
updateCurrDst(79509)
updateCurrDst(79625)
updateCurrDst(79629)
updateCurrDst(79761)
updateCurrDst(79916)
updateCurrDst(80003)
updateCurrDst(80155)
updateCurrDst(80214)
Heartbeat CPU 0 instructions: 52000002 cycles: 44202433 heartbeat IPC: 0.324705 cumulative IPC: 0.325249 (Simulation time: 0 hr 2 min 41 sec) 
updateCurrDst(80311)
updateCurrDst(80460)
updateCurrDst(80477)
updateCurrDst(80717)
updateCurrDst(80815)
updateCurrDst(81095)
updateCurrDst(81180)
updateCurrDst(81201)
updateCurrDst(81330)
updateCurrDst(81340)
updateCurrDst(81535)
updateCurrDst(81617)
updateCurrDst(81677)
updateCurrDst(81995)
Heartbeat CPU 0 instructions: 53000002 cycles: 47273228 heartbeat IPC: 0.325649 cumulative IPC: 0.325285 (Simulation time: 0 hr 2 min 45 sec) 
updateCurrDst(82118)
updateCurrDst(82273)
updateCurrDst(82305)
updateCurrDst(82606)
updateCurrDst(82866)
updateCurrDst(83038)
updateCurrDst(83088)
updateCurrDst(83238)
updateCurrDst(83303)
updateCurrDst(83350)
updateCurrDst(83453)
updateCurrDst(83544)
updateCurrDst(83560)
updateCurrDst(83612)
updateCurrDst(83704)
Heartbeat CPU 0 instructions: 54000003 cycles: 50347968 heartbeat IPC: 0.325231 cumulative IPC: 0.325281 (Simulation time: 0 hr 2 min 49 sec) 
updateCurrDst(83757)
updateCurrDst(83935)
updateCurrDst(83938)
updateCurrDst(84073)
updateCurrDst(84100)
updateCurrDst(84125)
updateCurrDst(84150)
updateCurrDst(84167)
updateCurrDst(84309)
updateCurrDst(84457)
updateCurrDst(84481)
updateCurrDst(84501)
updateCurrDst(84615)
updateCurrDst(85009)
updateCurrDst(85099)
updateCurrDst(85192)
updateCurrDst(85262)
updateCurrDst(85265)
updateCurrDst(85340)
Heartbeat CPU 0 instructions: 55000000 cycles: 53418482 heartbeat IPC: 0.325677 cumulative IPC: 0.325311 (Simulation time: 0 hr 2 min 52 sec) 
updateCurrDst(85535)
updateCurrDst(85574)
updateCurrDst(85583)
updateCurrDst(85637)
updateCurrDst(85796)
updateCurrDst(85837)
updateCurrDst(85851)
updateCurrDst(85956)
updateCurrDst(85960)
updateCurrDst(86131)
updateCurrDst(86464)
updateCurrDst(86486)
updateCurrDst(86495)
updateCurrDst(86513)
updateCurrDst(86571)
updateCurrDst(86609)
updateCurrDst(86610)
updateCurrDst(86617)
updateCurrDst(86659)
updateCurrDst(86717)
updateCurrDst(86738)
updateCurrDst(86811)
updateCurrDst(86821)
updateCurrDst(86910)
updateCurrDst(87127)
updateCurrDst(87147)
Heartbeat CPU 0 instructions: 56000001 cycles: 56485598 heartbeat IPC: 0.32604 cumulative IPC: 0.325363 (Simulation time: 0 hr 2 min 56 sec) 
updateCurrDst(87287)
updateCurrDst(87722)
updateCurrDst(87839)
updateCurrDst(87863)
updateCurrDst(87897)
updateCurrDst(87972)
updateCurrDst(87991)
updateCurrDst(88017)
updateCurrDst(88265)
updateCurrDst(88341)
updateCurrDst(88494)
updateCurrDst(88498)
updateCurrDst(88589)
updateCurrDst(88693)
updateCurrDst(88866)
updateCurrDst(88914)
Heartbeat CPU 0 instructions: 57000002 cycles: 59563211 heartbeat IPC: 0.324927 cumulative IPC: 0.325334 (Simulation time: 0 hr 2 min 59 sec) 
updateCurrDst(88956)
updateCurrDst(89045)
updateCurrDst(89068)
updateCurrDst(89071)
updateCurrDst(89173)
updateCurrDst(89235)
updateCurrDst(89418)
updateCurrDst(89503)
updateCurrDst(89544)
updateCurrDst(89550)
updateCurrDst(90008)
updateCurrDst(90044)
updateCurrDst(90058)
updateCurrDst(90151)
updateCurrDst(90154)
updateCurrDst(90268)
updateCurrDst(90465)
updateCurrDst(90470)
updateCurrDst(90631)
Heartbeat CPU 0 instructions: 58000000 cycles: 62633140 heartbeat IPC: 0.32574 cumulative IPC: 0.32536 (Simulation time: 0 hr 3 min 3 sec) 
updateCurrDst(90739)
updateCurrDst(90821)
updateCurrDst(90932)
updateCurrDst(91106)
updateCurrDst(91327)
updateCurrDst(91349)
updateCurrDst(91392)
updateCurrDst(91404)
updateCurrDst(91445)
updateCurrDst(91505)
updateCurrDst(91602)
updateCurrDst(91827)
updateCurrDst(91828)
updateCurrDst(91839)
updateCurrDst(91938)
updateCurrDst(91956)
updateCurrDst(92194)
updateCurrDst(92330)
Heartbeat CPU 0 instructions: 59000002 cycles: 65697669 heartbeat IPC: 0.326315 cumulative IPC: 0.325416 (Simulation time: 0 hr 3 min 8 sec) 
updateCurrDst(92435)
updateCurrDst(92490)
updateCurrDst(92556)
updateCurrDst(92684)
updateCurrDst(92815)
updateCurrDst(93077)
updateCurrDst(93171)
updateCurrDst(93270)
updateCurrDst(93422)
updateCurrDst(93564)
updateCurrDst(93652)
updateCurrDst(93666)
updateCurrDst(93732)
updateCurrDst(93831)
updateCurrDst(94077)
updateCurrDst(94103)
Heartbeat CPU 0 instructions: 60000001 cycles: 68774362 heartbeat IPC: 0.325024 cumulative IPC: 0.325394 (Simulation time: 0 hr 3 min 11 sec) 
updateCurrDst(94184)
updateCurrDst(94227)
updateCurrDst(94308)
updateCurrDst(94359)
updateCurrDst(94402)
updateCurrDst(94440)
updateCurrDst(94461)
updateCurrDst(94750)
updateCurrDst(94752)
updateCurrDst(94812)
updateCurrDst(94827)
updateCurrDst(94930)
updateCurrDst(95068)
updateCurrDst(95137)
updateCurrDst(95170)
updateCurrDst(95310)
updateCurrDst(95373)
updateCurrDst(95390)
updateCurrDst(95391)
updateCurrDst(95509)
updateCurrDst(95558)
updateCurrDst(95703)
updateCurrDst(95850)
Heartbeat CPU 0 instructions: 61000000 cycles: 71847160 heartbeat IPC: 0.325436 cumulative IPC: 0.325396 (Simulation time: 0 hr 3 min 15 sec) 
updateCurrDst(95988)
updateCurrDst(96088)
updateCurrDst(96104)
updateCurrDst(96465)
updateCurrDst(96763)
updateCurrDst(97068)
updateCurrDst(97212)
updateCurrDst(97225)
updateCurrDst(97235)
Heartbeat CPU 0 instructions: 62000000 cycles: 74912653 heartbeat IPC: 0.326212 cumulative IPC: 0.325437 (Simulation time: 0 hr 3 min 18 sec) 
updateCurrDst(97628)
updateCurrDst(97709)
updateCurrDst(97941)
updateCurrDst(97998)
updateCurrDst(98090)
updateCurrDst(98147)
updateCurrDst(98182)
updateCurrDst(98252)
updateCurrDst(98361)
updateCurrDst(98447)
updateCurrDst(98587)
updateCurrDst(98621)
updateCurrDst(98645)
updateCurrDst(98704)
updateCurrDst(98858)
updateCurrDst(98923)
updateCurrDst(99011)
updateCurrDst(99020)
updateCurrDst(99269)
Heartbeat CPU 0 instructions: 63000003 cycles: 77998153 heartbeat IPC: 0.324098 cumulative IPC: 0.325373 (Simulation time: 0 hr 3 min 22 sec) 
updateCurrDst(99392)
updateCurrDst(99505)
updateCurrDst(99619)
updateCurrDst(99786)
updateCurrDst(99844)
updateCurrDst(100152)
updateCurrDst(100177)
updateCurrDst(100240)
updateCurrDst(100443)
updateCurrDst(100554)
updateCurrDst(100633)
updateCurrDst(100876)
updateCurrDst(100964)
updateCurrDst(100987)
updateCurrDst(100996)
updateCurrDst(101078)
Heartbeat CPU 0 instructions: 64000001 cycles: 81065104 heartbeat IPC: 0.326056 cumulative IPC: 0.325404 (Simulation time: 0 hr 3 min 26 sec) 
updateCurrDst(101260)
updateCurrDst(101360)
updateCurrDst(101634)
updateCurrDst(101783)
updateCurrDst(101894)
updateCurrDst(101920)
updateCurrDst(101930)
updateCurrDst(102016)
updateCurrDst(102137)
updateCurrDst(102139)
updateCurrDst(102193)
updateCurrDst(102209)
updateCurrDst(102253)
updateCurrDst(102255)
updateCurrDst(102313)
updateCurrDst(102416)
updateCurrDst(102465)
updateCurrDst(102467)
updateCurrDst(102523)
updateCurrDst(102570)
updateCurrDst(102662)
updateCurrDst(102673)
updateCurrDst(102678)
Heartbeat CPU 0 instructions: 65000002 cycles: 84132865 heartbeat IPC: 0.325971 cumulative IPC: 0.325428 (Simulation time: 0 hr 3 min 30 sec) 
updateCurrDst(102841)
updateCurrDst(103053)
updateCurrDst(103195)
updateCurrDst(103307)
updateCurrDst(103331)
updateCurrDst(103419)
updateCurrDst(103483)
updateCurrDst(103570)
updateCurrDst(103642)
updateCurrDst(103907)
updateCurrDst(103954)
updateCurrDst(104114)
updateCurrDst(104213)
updateCurrDst(104248)
updateCurrDst(104309)
updateCurrDst(104351)
updateCurrDst(104482)
updateCurrDst(104495)
Heartbeat CPU 0 instructions: 66000000 cycles: 87207545 heartbeat IPC: 0.325236 cumulative IPC: 0.32542 (Simulation time: 0 hr 3 min 33 sec) 
updateCurrDst(104644)
updateCurrDst(105017)
updateCurrDst(105169)
updateCurrDst(105375)
updateCurrDst(105392)
updateCurrDst(105570)
updateCurrDst(105634)
updateCurrDst(105720)
updateCurrDst(105919)
updateCurrDst(105939)
updateCurrDst(106157)
updateCurrDst(106187)
Heartbeat CPU 0 instructions: 67000000 cycles: 90276334 heartbeat IPC: 0.325861 cumulative IPC: 0.325438 (Simulation time: 0 hr 3 min 37 sec) 
updateCurrDst(106352)
updateCurrDst(106397)
updateCurrDst(106584)
updateCurrDst(106634)
updateCurrDst(106852)
updateCurrDst(106896)
updateCurrDst(107026)
updateCurrDst(107256)
updateCurrDst(107347)
updateCurrDst(107597)
updateCurrDst(107606)
updateCurrDst(107633)
updateCurrDst(107773)
updateCurrDst(107860)
updateCurrDst(107955)
updateCurrDst(108027)
Heartbeat CPU 0 instructions: 68000000 cycles: 93347444 heartbeat IPC: 0.325615 cumulative IPC: 0.325445 (Simulation time: 0 hr 3 min 40 sec) 
updateCurrDst(108076)
updateCurrDst(108283)
updateCurrDst(108336)
updateCurrDst(108371)
updateCurrDst(108507)
updateCurrDst(108528)
updateCurrDst(108908)
updateCurrDst(108957)
updateCurrDst(108976)
updateCurrDst(109123)
updateCurrDst(109178)
updateCurrDst(109331)
Heartbeat CPU 0 instructions: 69000000 cycles: 96422296 heartbeat IPC: 0.325219 cumulative IPC: 0.325436 (Simulation time: 0 hr 3 min 43 sec) 
updateCurrDst(110171)
updateCurrDst(110418)
updateCurrDst(110509)
updateCurrDst(110590)
updateCurrDst(110598)
updateCurrDst(110601)
updateCurrDst(110628)
updateCurrDst(110633)
updateCurrDst(110645)
updateCurrDst(110696)
updateCurrDst(111029)
updateCurrDst(111090)
updateCurrDst(111135)
updateCurrDst(111286)
updateCurrDst(111287)
updateCurrDst(111316)
updateCurrDst(111375)
Heartbeat CPU 0 instructions: 70000000 cycles: 99489071 heartbeat IPC: 0.326075 cumulative IPC: 0.325459 (Simulation time: 0 hr 3 min 47 sec) 
updateCurrDst(111805)
updateCurrDst(111943)
updateCurrDst(112070)
updateCurrDst(112187)
updateCurrDst(112250)
updateCurrDst(112368)
updateCurrDst(112768)
updateCurrDst(112776)
updateCurrDst(112812)
updateCurrDst(112953)
updateCurrDst(112956)
updateCurrDst(112986)
updateCurrDst(113042)
updateCurrDst(113071)
updateCurrDst(113162)
updateCurrDst(113181)
updateCurrDst(113182)
updateCurrDst(113244)
Heartbeat CPU 0 instructions: 71000000 cycles: 102559643 heartbeat IPC: 0.325672 cumulative IPC: 0.325467 (Simulation time: 0 hr 3 min 50 sec) 
updateCurrDst(113411)
updateCurrDst(113564)
updateCurrDst(113573)
updateCurrDst(113581)
updateCurrDst(113680)
updateCurrDst(113867)
updateCurrDst(114036)
updateCurrDst(114293)
updateCurrDst(114295)
updateCurrDst(114464)
updateCurrDst(114555)
updateCurrDst(114556)
updateCurrDst(114567)
updateCurrDst(114707)
updateCurrDst(114739)
updateCurrDst(114829)
updateCurrDst(114858)
updateCurrDst(114876)
updateCurrDst(114925)
updateCurrDst(114942)
updateCurrDst(114945)
Heartbeat CPU 0 instructions: 72000001 cycles: 105628959 heartbeat IPC: 0.325806 cumulative IPC: 0.325478 (Simulation time: 0 hr 3 min 53 sec) 
updateCurrDst(114969)
updateCurrDst(114975)
updateCurrDst(115508)
updateCurrDst(115510)
updateCurrDst(115521)
updateCurrDst(115529)
updateCurrDst(115580)
updateCurrDst(115771)
updateCurrDst(115785)
updateCurrDst(115789)
updateCurrDst(115890)
updateCurrDst(115929)
updateCurrDst(116078)
updateCurrDst(116261)
updateCurrDst(116490)
updateCurrDst(116552)
updateCurrDst(116598)
updateCurrDst(116660)
updateCurrDst(116688)
Heartbeat CPU 0 instructions: 73000001 cycles: 108695724 heartbeat IPC: 0.326077 cumulative IPC: 0.325497 (Simulation time: 0 hr 3 min 57 sec) 
updateCurrDst(116747)
updateCurrDst(116975)
updateCurrDst(117059)
updateCurrDst(117072)
updateCurrDst(117296)
updateCurrDst(117402)
updateCurrDst(117444)
updateCurrDst(117455)
updateCurrDst(117555)
updateCurrDst(117572)
updateCurrDst(117749)
updateCurrDst(117807)
updateCurrDst(117819)
updateCurrDst(117991)
updateCurrDst(118080)
updateCurrDst(118254)
updateCurrDst(118257)
updateCurrDst(118315)
updateCurrDst(118316)
updateCurrDst(118435)
Heartbeat CPU 0 instructions: 74000001 cycles: 111780630 heartbeat IPC: 0.324159 cumulative IPC: 0.325455 (Simulation time: 0 hr 4 min 0 sec) 
updateCurrDst(118570)
updateCurrDst(118748)
updateCurrDst(118811)
updateCurrDst(118816)
updateCurrDst(119068)
updateCurrDst(119192)
updateCurrDst(119194)
updateCurrDst(119450)
updateCurrDst(119552)
updateCurrDst(119820)
updateCurrDst(119860)
updateCurrDst(119913)
updateCurrDst(120104)
updateCurrDst(120170)
Heartbeat CPU 0 instructions: 75000000 cycles: 114851124 heartbeat IPC: 0.32568 cumulative IPC: 0.325462 (Simulation time: 0 hr 4 min 4 sec) 
updateCurrDst(120219)
updateCurrDst(120333)
updateCurrDst(120599)
updateCurrDst(120795)
updateCurrDst(120842)
updateCurrDst(121051)
updateCurrDst(121394)
updateCurrDst(121560)
updateCurrDst(121615)
updateCurrDst(121676)
updateCurrDst(121726)
updateCurrDst(121783)
updateCurrDst(121797)
Heartbeat CPU 0 instructions: 76000000 cycles: 117916095 heartbeat IPC: 0.326267 cumulative IPC: 0.325486 (Simulation time: 0 hr 4 min 8 sec) 
updateCurrDst(122091)
updateCurrDst(122092)
updateCurrDst(122147)
updateCurrDst(122172)
updateCurrDst(122227)
updateCurrDst(122535)
updateCurrDst(122662)
updateCurrDst(122710)
updateCurrDst(122989)
updateCurrDst(123151)
updateCurrDst(123226)
updateCurrDst(123265)
updateCurrDst(123296)
updateCurrDst(123329)
updateCurrDst(123541)
Heartbeat CPU 0 instructions: 77000000 cycles: 120986572 heartbeat IPC: 0.325682 cumulative IPC: 0.325491 (Simulation time: 0 hr 4 min 11 sec) 
updateCurrDst(123715)
updateCurrDst(123964)
updateCurrDst(124180)
updateCurrDst(124185)
updateCurrDst(124477)
updateCurrDst(124674)
updateCurrDst(124730)
updateCurrDst(124741)
updateCurrDst(124860)
updateCurrDst(125024)
updateCurrDst(125118)
updateCurrDst(125209)
updateCurrDst(125229)
updateCurrDst(125272)
updateCurrDst(125274)
Heartbeat CPU 0 instructions: 78000000 cycles: 124053079 heartbeat IPC: 0.326104 cumulative IPC: 0.325508 (Simulation time: 0 hr 4 min 15 sec) 
updateCurrDst(125579)
updateCurrDst(125620)
updateCurrDst(126150)
updateCurrDst(126192)
updateCurrDst(126255)
updateCurrDst(126753)
updateCurrDst(126760)
updateCurrDst(126829)
updateCurrDst(126850)
updateCurrDst(126944)
Heartbeat CPU 0 instructions: 79000001 cycles: 127128690 heartbeat IPC: 0.325139 cumulative IPC: 0.325498 (Simulation time: 0 hr 4 min 18 sec) 
updateCurrDst(127128)
updateCurrDst(127304)
updateCurrDst(127320)
updateCurrDst(127349)
updateCurrDst(127509)
updateCurrDst(127513)
updateCurrDst(127578)
updateCurrDst(127636)
updateCurrDst(127735)
updateCurrDst(127782)
updateCurrDst(127877)
updateCurrDst(127894)
updateCurrDst(128088)
updateCurrDst(128184)
updateCurrDst(128228)
updateCurrDst(128241)
updateCurrDst(128289)
updateCurrDst(128290)
updateCurrDst(128376)
updateCurrDst(128466)
updateCurrDst(128555)
updateCurrDst(128764)
Heartbeat CPU 0 instructions: 80000001 cycles: 130202542 heartbeat IPC: 0.325325 cumulative IPC: 0.325494 (Simulation time: 0 hr 4 min 21 sec) 
updateCurrDst(128888)
updateCurrDst(129140)
updateCurrDst(129204)
updateCurrDst(129303)
updateCurrDst(129376)
updateCurrDst(129586)
updateCurrDst(129609)
updateCurrDst(129898)
updateCurrDst(129913)
updateCurrDst(129961)
updateCurrDst(130123)
updateCurrDst(130293)
updateCurrDst(130339)
updateCurrDst(130389)
updateCurrDst(130424)
updateCurrDst(130444)
Heartbeat CPU 0 instructions: 81000001 cycles: 133274986 heartbeat IPC: 0.325474 cumulative IPC: 0.325493 (Simulation time: 0 hr 4 min 25 sec) 
updateCurrDst(130582)
updateCurrDst(130594)
updateCurrDst(130798)
updateCurrDst(131016)
*** Reached end of trace for Core: 0 Repeating trace: ./tracer/pull_u17_k4.xzafter: 81294807
Heartbeat CPU 0 instructions: 82000002 cycles: 136506965 heartbeat IPC: 0.309408 cumulative IPC: 0.325071 (Simulation time: 0 hr 4 min 30 sec) 
Heartbeat CPU 0 instructions: 83000001 cycles: 139723182 heartbeat IPC: 0.310924 cumulative IPC: 0.32471 (Simulation time: 0 hr 4 min 36 sec) 
Heartbeat CPU 0 instructions: 84000000 cycles: 142965099 heartbeat IPC: 0.308459 cumulative IPC: 0.324303 (Simulation time: 0 hr 4 min 43 sec) 
Finished CPU 0 instructions: 42000000 cycles: 129508339 cumulative IPC: 0.324303 (Simulation time: 0 hr 4 min 43 sec) 

ChampSim completed all CPUs

Region of Interest Statistics

CPU 0 cumulative IPC: 0.324303 instructions: 42000000 cycles: 129508339

Total ROB STALLS:                   15550016
STLB MISS ROB STALLS:                    752
L1D  LOAD MISS ROB STALLS:            555502  Translation MISS ROB STALLS:             0
L2C  LOAD MISS ROB STALLS:            144067  Translation MISS ROB STALLS:             0
LLC  LOAD MISS ROB STALLS:             57373  Translation MISS ROB STALLS:             0

ITLB TOTAL     ACCESS:           6075904  HIT:    6075877  MISS:         27  HIT %:    99.9996  MISS %: 0.000444378   MPKI: 0.000642857
ITLB LOAD TRANSLATION ACCESS:    6075904  HIT:    6075877  MISS:         27  HIT %:    99.9996  MISS %: 0.000444378   MPKI: 0.000642857
ITLB AVERAGE MISS LATENCY:       247.333 cycles
ITLB RQ ACCESS:     6559961	FORWARD:           0	MERGED:       484056	TO_CACHE:    6075905

DTLB TOTAL     ACCESS:          12555056  HIT:   12259626  MISS:     295430  HIT %:    97.6469  MISS %:    2.35308   MPKI: 7.03405
DTLB LOAD TRANSLATION ACCESS:   12555056  HIT:   12259626  MISS:     295430  HIT %:    97.6469  MISS %:    2.35308   MPKI: 7.03405
DTLB AVERAGE MISS LATENCY:       9.58242 cycles
DTLB RQ ACCESS:    17587537	FORWARD:           0	MERGED:      5032473	TO_CACHE:   12555064

STLB TOTAL     ACCESS:            295457  HIT:     294658  MISS:        799  HIT %:    99.7296  MISS %:   0.270429   MPKI: 0.0190238
STLB LOAD TRANSLATION ACCESS:     295457  HIT:     294658  MISS:        799  HIT %:    99.7296  MISS %:   0.270429   MPKI: 0.0190238
STLB AVERAGE MISS LATENCY:       223.402 cycles
STLB RQ ACCESS:      295457	FORWARD:           0	MERGED:            0	TO_CACHE:     295457

PSCL5 TOTAL     ACCESS:               799  HIT:        799  MISS:          0  HIT %:        100  MISS %:          0   MPKI: 0
PSCL5 LOAD TRANSLATION ACCESS:        799  HIT:        799  MISS:          0  HIT %:        100  MISS %:          0   MPKI: 0

PSCL4 TOTAL     ACCESS:               799  HIT:        799  MISS:          0  HIT %:        100  MISS %:          0   MPKI: 0
PSCL4 LOAD TRANSLATION ACCESS:        799  HIT:        799  MISS:          0  HIT %:        100  MISS %:          0   MPKI: 0

PSCL3 TOTAL     ACCESS:               799  HIT:        799  MISS:          0  HIT %:        100  MISS %:          0   MPKI: 0
PSCL3 LOAD TRANSLATION ACCESS:        799  HIT:        799  MISS:          0  HIT %:        100  MISS %:          0   MPKI: 0

PSCL2 TOTAL     ACCESS:               799  HIT:        798  MISS:          1  HIT %:    99.8748  MISS %:   0.125156   MPKI: 2.38095e-05
PSCL2 LOAD TRANSLATION ACCESS:        799  HIT:        798  MISS:          1  HIT %:    99.8748  MISS %:   0.125156   MPKI: 2.38095e-05

L1D TOTAL     ACCESS:          17574868  HIT:   17009045  MISS:     565823  HIT %:    96.7805  MISS %:     3.2195   MPKI: 13.472  USED:      99285  UNUSED:     466538
L1D LOAD      ACCESS:           8046449  HIT:    7490897  MISS:     555552  HIT %:    93.0957  MISS %:    6.90431   MPKI: 13.2274  USED:      99265  UNUSED:     456671
L1D RFO       ACCESS:           9528419  HIT:    9518148  MISS:      10271  HIT %:    99.8922  MISS %:   0.107793   MPKI: 0.244548
L1D PTL1 TRANSLATION ACCESS:          0  HIT:          0  MISS:          0  HIT %:       -nan  MISS %:       -nan   MPKI: 0
L1D PTL2 TRANSLATION ACCESS:          0  HIT:          0  MISS:          0  HIT %:       -nan  MISS %:       -nan   MPKI: 0
L1D PTL3 TRANSLATION ACCESS:          0  HIT:          0  MISS:          0  HIT %:       -nan  MISS %:       -nan   MPKI: 0
L1D PTL4 TRANSLATION ACCESS:          0  HIT:          0  MISS:          0  HIT %:       -nan  MISS %:       -nan   MPKI: 0
L1D PTL5 TRANSLATION ACCESS:          0  HIT:          0  MISS:          0  HIT %:       -nan  MISS %:       -nan   MPKI: 0
L1D TOTAL EVICTIONS:             565823  TRANSLATION EVICTIONS:          0  TRANSLATION EVICTING TRANSALTION:          0  TRANSLATION EVICTING LOAD:          0  LOAD EVICTING TRANSALTION:          0  LOAD EVICTING LOAD:      555081
L1D AVERAGE MISS LATENCY:       37.4918 cycles  AVERAGE LOAD MISS LATENCY:       35.6324 cycles  AVERAGE LOAD TRANSLATION MISS LATENCY:          -nan cycles
L1D RQ ACCESS:    10746079	FORWARD:           0	MERGED:      1702713	TO_CACHE:    8046466
L1D WQ ACCESS:     9548614	FORWARD:      996900	MERGED:         7543	TO_CACHE:    9541071

L1I TOTAL     ACCESS:           6559952  HIT:    6559809  MISS:        143  HIT %:    99.9978  MISS %: 0.00217989   MPKI: 0.00340476
L1I LOAD      ACCESS:           6559952  HIT:    6559809  MISS:        143  HIT %:    99.9978  MISS %: 0.00217989   MPKI: 0.00340476
L1I AVERAGE MISS LATENCY:       194.035 cycles
L1I RQ ACCESS:    10149990	FORWARD:           0	MERGED:      3590029	TO_CACHE:    6559961

L2C TOTAL     ACCESS:            580168  HIT:     425629  MISS:     154539  HIT %:    73.3631  MISS %:    26.6369   MPKI: 3.6795  USED:      77109  UNUSED:      77430
L2C LOAD      ACCESS:            555695  HIT:     411434  MISS:     144261  HIT %:    74.0395  MISS %:    25.9605   MPKI: 3.43479  USED:      77109  UNUSED:      71311
L2C RFO       ACCESS:             10271  HIT:          0  MISS:      10271  HIT %:          0  MISS %:        100   MPKI: 0.244548
L2C WRITEBACK ACCESS:             14202  HIT:      14195  MISS:          7  HIT %:    99.9507  MISS %:  0.0492888   MPKI: 0.000166667
L2C PTL1 TRANSLATION ACCESS:          0  HIT:          0  MISS:          0  HIT %:       -nan  MISS %:       -nan   MPKI: 0
L2C PTL2 TRANSLATION ACCESS:          0  HIT:          0  MISS:          0  HIT %:       -nan  MISS %:       -nan   MPKI: 0
L2C PTL3 TRANSLATION ACCESS:          0  HIT:          0  MISS:          0  HIT %:       -nan  MISS %:       -nan   MPKI: 0
L2C PTL4 TRANSLATION ACCESS:          0  HIT:          0  MISS:          0  HIT %:       -nan  MISS %:       -nan   MPKI: 0
L2C PTL5 TRANSLATION ACCESS:          0  HIT:          0  MISS:          0  HIT %:       -nan  MISS %:       -nan   MPKI: 0
L2C TOTAL EVICTIONS:             154539  TRANSLATION EVICTIONS:          0  TRANSLATION EVICTING TRANSALTION:          0  TRANSLATION EVICTING LOAD:          0  LOAD EVICTING TRANSALTION:          0  LOAD EVICTING LOAD:      141454
L2C AVERAGE MISS LATENCY:       82.5169 cycles  AVERAGE LOAD MISS LATENCY:        79.634 cycles  AVERAGE LOAD TRANSLATION MISS LATENCY:          -nan cycles
L2C RQ ACCESS:      565967	FORWARD:           0	MERGED:            0	TO_CACHE:     565967
L2C WQ ACCESS:       14202	FORWARD:           0	MERGED:            0	TO_CACHE:      14202

LLC TOTAL     ACCESS:            165061  HIT:      97215  MISS:      67846  HIT %:    58.8964  MISS %:    41.1036   MPKI: 1.61538  USED:       2103  UNUSED:      65743
LLC LOAD      ACCESS:            144261  HIT:      86693  MISS:      57568  HIT %:    60.0946  MISS %:    39.9054   MPKI: 1.37067  USED:         40  UNUSED:      65743
LLC RFO       ACCESS:             10271  HIT:          0  MISS:      10271  HIT %:          0  MISS %:        100   MPKI: 0.244548
LLC WRITEBACK ACCESS:             10529  HIT:      10522  MISS:          7  HIT %:    99.9335  MISS %:   0.066483   MPKI: 0.000166667
LLC PTL1 TRANSLATION ACCESS:          0  HIT:          0  MISS:          0  HIT %:       -nan  MISS %:       -nan   MPKI: 0
LLC PTL2 TRANSLATION ACCESS:          0  HIT:          0  MISS:          0  HIT %:       -nan  MISS %:       -nan   MPKI: 0
LLC PTL3 TRANSLATION ACCESS:          0  HIT:          0  MISS:          0  HIT %:       -nan  MISS %:       -nan   MPKI: 0
LLC PTL4 TRANSLATION ACCESS:          0  HIT:          0  MISS:          0  HIT %:       -nan  MISS %:       -nan   MPKI: 0
LLC PTL5 TRANSLATION ACCESS:          0  HIT:          0  MISS:          0  HIT %:       -nan  MISS %:       -nan   MPKI: 0
LLC TOTAL EVICTIONS:              67846  TRANSLATION EVICTIONS:          0  TRANSLATION EVICTING TRANSALTION:          0  TRANSLATION EVICTING LOAD:          0  LOAD EVICTING TRANSALTION:          0  LOAD EVICTING LOAD:       56284
LLC AVERAGE MISS LATENCY:       119.622 cycles  AVERAGE LOAD MISS LATENCY:       124.374 cycles  AVERAGE LOAD TRANSLATION MISS LATENCY:          -nan cycles
LLC RQ ACCESS:      154533	FORWARD:           0	MERGED:            0	TO_CACHE:     154533
LLC WQ ACCESS:       10529	FORWARD:           0	MERGED:            0	TO_CACHE:      10529


RAW hits: 7153335
Loads Generated: 17899414
Loads sent to L1D: 10746079
Stores Generated: 9548610
Stores sent to L1D: 9548614
Major fault: 0 Minor fault: 1921
Allocated PAGES: 1921
IRREG DATA L1D ACCESS: 1048532
L2C ACCESSES: 959609
L2C MISSES: 171308

DRAM Statistics
 CHANNEL 0
 RQ ROW_BUFFER_HIT:      34209  ROW_BUFFER_MISS:      34430
 DBUS_CONGESTED:          2
 WQ ROW_BUFFER_HIT:        106  ROW_BUFFER_MISS:       7663  FULL:          0

 AVG_CONGESTED_CYCLE: 8

CPU 0 Branch Prediction Accuracy: 98.6789% MPKI: 1.62429 Average ROB Occupancy at Mispredict: 17.3168
Branch types
NOT_BRANCH: 36836286 87.7054%
BRANCH_DIRECT_JUMP: 0 0%
BRANCH_INDIRECT: 694812 1.65431%
BRANCH_CONDITIONAL: 0 0%
BRANCH_DIRECT_CALL: 68121 0.162193%
BRANCH_INDIRECT_CALL: 1716212 4.08622%
BRANCH_RETURN: 1784334 4.24841%
BRANCH_OTHER: 900237 2.14342%

DRAM PAGES: 1048576
Allocated PAGES: 1921
