
*** ChampSim Multicore Out-of-Order Simulator ***

Warmup Instructions: 17000000
Simulation Instructions: 17000000
Number of CPUs: 1
LLC sets: 2048
LLC ways: 16
Off-chip DRAM Size: 4096 MB Channels: 1 Width: 64-bit Data Rate: 6400 MT/s
CPU 0 runs ./tracer/pull_u16_k3.xz
.xz
BTB has LRU replacement policy
ITLB has LRU replacement policy
DTLB has LRU replacement policy
STLB has LRU replacement policy
L1I has LRU replacement policy
L1D has LRU replacement policy
L2C has LRU replacement policy
Initialize DRRIP state for LLC
Heartbeat CPU 0 instructions: 1000000 cycles: 350520 heartbeat IPC: 2.8529 cumulative IPC: 2.8529 (Simulation time: 0 hr 0 min 3 sec) 
PIN_registerGraphs(random_u16_k3.sg,1)
Graphh Number of Nodes: 65536
Heartbeat CPU 0 instructions: 2000000 cycles: 690866 heartbeat IPC: 2.93819 cumulative IPC: 2.89492 (Simulation time: 0 hr 0 min 5 sec) 
PIN_updateRegBaseBound( 94614838350032, 94614838612176)
updateCurrDst(4)
updateCurrDst(556)
updateCurrDst(750)
updateCurrDst(798)
updateCurrDst(877)
updateCurrDst(904)
updateCurrDst(936)
Heartbeat CPU 0 instructions: 3000001 cycles: 1015874 heartbeat IPC: 3.07685 cumulative IPC: 2.95312 (Simulation time: 0 hr 0 min 7 sec) 
updateCurrDst(1173)
updateCurrDst(1224)
updateCurrDst(1273)
updateCurrDst(1311)
updateCurrDst(1369)
updateCurrDst(1589)
updateCurrDst(1646)
updateCurrDst(1679)
updateCurrDst(1869)
updateCurrDst(2080)
updateCurrDst(2140)
updateCurrDst(2153)
updateCurrDst(2162)
updateCurrDst(2415)
updateCurrDst(2464)
updateCurrDst(2553)
updateCurrDst(2782)
updateCurrDst(2801)
updateCurrDst(2837)
updateCurrDst(2872)
updateCurrDst(2909)
updateCurrDst(3091)
Heartbeat CPU 0 instructions: 4000001 cycles: 1333488 heartbeat IPC: 3.14848 cumulative IPC: 2.99965 (Simulation time: 0 hr 0 min 10 sec) 
updateCurrDst(3234)
updateCurrDst(3327)
updateCurrDst(3408)
updateCurrDst(3510)
updateCurrDst(3533)
updateCurrDst(3826)
updateCurrDst(3846)
updateCurrDst(3862)
updateCurrDst(3899)
updateCurrDst(3930)
updateCurrDst(3980)
updateCurrDst(4104)
updateCurrDst(4128)
updateCurrDst(4173)
updateCurrDst(4305)
updateCurrDst(4479)
updateCurrDst(4489)
updateCurrDst(4533)
updateCurrDst(4693)
updateCurrDst(4746)
updateCurrDst(4816)
updateCurrDst(4919)
updateCurrDst(4984)
updateCurrDst(5002)
updateCurrDst(5059)
updateCurrDst(5125)
updateCurrDst(5257)
updateCurrDst(5283)
Heartbeat CPU 0 instructions: 5000000 cycles: 1650860 heartbeat IPC: 3.15087 cumulative IPC: 3.02872 (Simulation time: 0 hr 0 min 14 sec) 
updateCurrDst(5702)
updateCurrDst(5866)
updateCurrDst(5885)
updateCurrDst(6149)
updateCurrDst(6217)
updateCurrDst(6277)
updateCurrDst(6390)
updateCurrDst(6603)
updateCurrDst(6610)
updateCurrDst(6680)
updateCurrDst(6822)
updateCurrDst(6836)
updateCurrDst(6929)
updateCurrDst(6975)
updateCurrDst(7030)
updateCurrDst(7132)
updateCurrDst(7248)
updateCurrDst(7303)
Heartbeat CPU 0 instructions: 6000002 cycles: 1968547 heartbeat IPC: 3.14776 cumulative IPC: 3.04793 (Simulation time: 0 hr 0 min 17 sec) 
updateCurrDst(7529)
updateCurrDst(7592)
updateCurrDst(7847)
updateCurrDst(7907)
updateCurrDst(8079)
updateCurrDst(8087)
updateCurrDst(8149)
updateCurrDst(8155)
updateCurrDst(8291)
updateCurrDst(8471)
updateCurrDst(8531)
updateCurrDst(8550)
updateCurrDst(8658)
updateCurrDst(8660)
updateCurrDst(8691)
updateCurrDst(8959)
updateCurrDst(9052)
updateCurrDst(9378)
updateCurrDst(9387)
Heartbeat CPU 0 instructions: 7000001 cycles: 2285581 heartbeat IPC: 3.15423 cumulative IPC: 3.06268 (Simulation time: 0 hr 0 min 20 sec) 
updateCurrDst(9605)
updateCurrDst(9772)
updateCurrDst(9967)
updateCurrDst(10232)
updateCurrDst(10255)
updateCurrDst(10625)
updateCurrDst(10714)
updateCurrDst(10744)
updateCurrDst(11090)
updateCurrDst(11106)
updateCurrDst(11173)
updateCurrDst(11256)
updateCurrDst(11366)
updateCurrDst(11501)
Heartbeat CPU 0 instructions: 8000001 cycles: 2603169 heartbeat IPC: 3.14873 cumulative IPC: 3.07318 (Simulation time: 0 hr 0 min 23 sec) 
updateCurrDst(11522)
updateCurrDst(11526)
updateCurrDst(11551)
updateCurrDst(11564)
updateCurrDst(11658)
updateCurrDst(11666)
updateCurrDst(11888)
updateCurrDst(12012)
updateCurrDst(12033)
updateCurrDst(12095)
updateCurrDst(12121)
updateCurrDst(12356)
updateCurrDst(12472)
updateCurrDst(12864)
updateCurrDst(13174)
updateCurrDst(13177)
updateCurrDst(13187)
updateCurrDst(13233)
updateCurrDst(13473)
updateCurrDst(13590)
Heartbeat CPU 0 instructions: 9000001 cycles: 2921045 heartbeat IPC: 3.14588 cumulative IPC: 3.08109 (Simulation time: 0 hr 0 min 26 sec) 
updateCurrDst(13606)
updateCurrDst(13621)
updateCurrDst(13661)
updateCurrDst(13820)
updateCurrDst(13873)
updateCurrDst(13916)
updateCurrDst(13927)
updateCurrDst(14055)
updateCurrDst(14175)
updateCurrDst(14222)
updateCurrDst(14276)
updateCurrDst(14327)
updateCurrDst(14454)
updateCurrDst(14489)
updateCurrDst(14761)
updateCurrDst(14856)
updateCurrDst(14927)
updateCurrDst(15134)
updateCurrDst(15176)
updateCurrDst(15269)
updateCurrDst(15334)
updateCurrDst(15359)
updateCurrDst(15567)
updateCurrDst(15656)
Heartbeat CPU 0 instructions: 10000003 cycles: 3238539 heartbeat IPC: 3.14967 cumulative IPC: 3.08781 (Simulation time: 0 hr 0 min 29 sec) 
updateCurrDst(15871)
updateCurrDst(15882)
updateCurrDst(15939)
updateCurrDst(16154)
updateCurrDst(16216)
updateCurrDst(16275)
updateCurrDst(16412)
updateCurrDst(16418)
updateCurrDst(16463)
updateCurrDst(16739)
updateCurrDst(16972)
updateCurrDst(17146)
updateCurrDst(17263)
updateCurrDst(17357)
updateCurrDst(17456)
Heartbeat CPU 0 instructions: 11000000 cycles: 3555978 heartbeat IPC: 3.1502 cumulative IPC: 3.09338 (Simulation time: 0 hr 0 min 33 sec) 
updateCurrDst(17763)
updateCurrDst(18001)
updateCurrDst(18103)
updateCurrDst(18107)
updateCurrDst(18160)
updateCurrDst(18304)
updateCurrDst(18389)
updateCurrDst(18482)
updateCurrDst(18815)
updateCurrDst(19087)
updateCurrDst(19095)
updateCurrDst(19172)
updateCurrDst(19192)
updateCurrDst(19252)
updateCurrDst(19336)
updateCurrDst(19339)
updateCurrDst(19345)
updateCurrDst(19626)
Heartbeat CPU 0 instructions: 12000000 cycles: 3873406 heartbeat IPC: 3.15032 cumulative IPC: 3.09805 (Simulation time: 0 hr 0 min 36 sec) 
updateCurrDst(19946)
updateCurrDst(20052)
updateCurrDst(20179)
updateCurrDst(20238)
updateCurrDst(20265)
updateCurrDst(20303)
updateCurrDst(20338)
updateCurrDst(20348)
updateCurrDst(20439)
updateCurrDst(20466)
updateCurrDst(20611)
updateCurrDst(20673)
updateCurrDst(20776)
updateCurrDst(20957)
updateCurrDst(21022)
updateCurrDst(21115)
updateCurrDst(21131)
updateCurrDst(21264)
updateCurrDst(21277)
updateCurrDst(21340)
updateCurrDst(21404)
updateCurrDst(21414)
updateCurrDst(21483)
updateCurrDst(21609)
Heartbeat CPU 0 instructions: 13000002 cycles: 4191256 heartbeat IPC: 3.14614 cumulative IPC: 3.1017 (Simulation time: 0 hr 0 min 40 sec) 
updateCurrDst(22296)
updateCurrDst(22299)
updateCurrDst(22645)
updateCurrDst(22760)
updateCurrDst(22771)
updateCurrDst(22892)
updateCurrDst(22933)
updateCurrDst(22979)
updateCurrDst(23039)
updateCurrDst(23082)
updateCurrDst(23128)
updateCurrDst(23166)
updateCurrDst(23170)
updateCurrDst(23216)
updateCurrDst(23281)
updateCurrDst(23366)
updateCurrDst(23470)
updateCurrDst(23495)
updateCurrDst(23555)
updateCurrDst(23605)
updateCurrDst(23633)
updateCurrDst(23683)
updateCurrDst(23773)
updateCurrDst(23826)
updateCurrDst(24003)
Heartbeat CPU 0 instructions: 14000000 cycles: 4508919 heartbeat IPC: 3.14798 cumulative IPC: 3.10496 (Simulation time: 0 hr 0 min 43 sec) 
updateCurrDst(24021)
updateCurrDst(24078)
updateCurrDst(24182)
updateCurrDst(24288)
updateCurrDst(24396)
updateCurrDst(24457)
updateCurrDst(24532)
updateCurrDst(24731)
updateCurrDst(24859)
updateCurrDst(25585)
updateCurrDst(25627)
updateCurrDst(25875)
updateCurrDst(25889)
Heartbeat CPU 0 instructions: 15000000 cycles: 4826603 heartbeat IPC: 3.14778 cumulative IPC: 3.10778 (Simulation time: 0 hr 0 min 46 sec) 
updateCurrDst(26111)
updateCurrDst(26205)
updateCurrDst(26221)
updateCurrDst(26254)
updateCurrDst(26658)
updateCurrDst(26749)
updateCurrDst(26930)
updateCurrDst(27183)
updateCurrDst(27192)
updateCurrDst(27219)
updateCurrDst(27597)
updateCurrDst(27676)
updateCurrDst(27704)
updateCurrDst(27930)
updateCurrDst(28064)
Heartbeat CPU 0 instructions: 16000001 cycles: 5143920 heartbeat IPC: 3.15143 cumulative IPC: 3.11047 (Simulation time: 0 hr 0 min 49 sec) 
updateCurrDst(28222)
updateCurrDst(28476)
updateCurrDst(28908)
updateCurrDst(29020)
updateCurrDst(29190)
updateCurrDst(29480)
updateCurrDst(29524)
updateCurrDst(29569)
updateCurrDst(29620)
updateCurrDst(29662)
updateCurrDst(29676)
updateCurrDst(29700)
updateCurrDst(29708)
updateCurrDst(29944)
updateCurrDst(30043)
updateCurrDst(30065)
updateCurrDst(30074)
updateCurrDst(30097)
updateCurrDst(30179)
updateCurrDst(30197)
Heartbeat CPU 0 instructions: 17000000 cycles: 5461613 heartbeat IPC: 3.14769 cumulative IPC: 3.11263 (Simulation time: 0 hr 0 min 52 sec) 

Warmup complete CPU 0 instructions: 17000004 cycles: 5461614 (Simulation time: 0 hr 0 min 52 sec) 

updateCurrDst(30339)
updateCurrDst(30369)
updateCurrDst(30382)
updateCurrDst(30537)
updateCurrDst(30701)
updateCurrDst(30719)
updateCurrDst(30798)
updateCurrDst(30960)
updateCurrDst(31009)
updateCurrDst(31079)
updateCurrDst(31154)
updateCurrDst(31293)
updateCurrDst(31311)
updateCurrDst(31393)
updateCurrDst(31485)
updateCurrDst(31656)
updateCurrDst(31726)
updateCurrDst(31793)
updateCurrDst(31856)
updateCurrDst(31933)
updateCurrDst(32030)
updateCurrDst(32109)
updateCurrDst(32303)
updateCurrDst(32321)
Heartbeat CPU 0 instructions: 18000000 cycles: 8398710 heartbeat IPC: 0.340472 cumulative IPC: 0.340471 (Simulation time: 0 hr 0 min 56 sec) 
updateCurrDst(32365)
updateCurrDst(32438)
updateCurrDst(32487)
updateCurrDst(32767)
updateCurrDst(32875)
updateCurrDst(32890)
updateCurrDst(32930)
updateCurrDst(33245)
updateCurrDst(33366)
updateCurrDst(33387)
updateCurrDst(33392)
updateCurrDst(33465)
updateCurrDst(33531)
updateCurrDst(33573)
updateCurrDst(33599)
updateCurrDst(33761)
updateCurrDst(33762)
updateCurrDst(33808)
updateCurrDst(33878)
updateCurrDst(33883)
updateCurrDst(33896)
updateCurrDst(33981)
updateCurrDst(34077)
updateCurrDst(34221)
Heartbeat CPU 0 instructions: 19000003 cycles: 11328663 heartbeat IPC: 0.341303 cumulative IPC: 0.340887 (Simulation time: 0 hr 0 min 59 sec) 
updateCurrDst(34555)
updateCurrDst(34588)
updateCurrDst(34759)
updateCurrDst(34819)
updateCurrDst(34847)
updateCurrDst(34908)
updateCurrDst(35011)
updateCurrDst(35044)
updateCurrDst(35051)
updateCurrDst(35084)
updateCurrDst(35114)
updateCurrDst(35196)
updateCurrDst(35226)
updateCurrDst(35291)
updateCurrDst(35301)
updateCurrDst(35525)
updateCurrDst(35681)
updateCurrDst(35975)
updateCurrDst(36011)
updateCurrDst(36028)
updateCurrDst(36112)
updateCurrDst(36160)
updateCurrDst(36191)
updateCurrDst(36340)
updateCurrDst(36377)
updateCurrDst(36395)
updateCurrDst(36406)
updateCurrDst(36414)
updateCurrDst(36449)
Heartbeat CPU 0 instructions: 20000002 cycles: 14262193 heartbeat IPC: 0.340886 cumulative IPC: 0.340886 (Simulation time: 0 hr 1 min 2 sec) 
updateCurrDst(36571)
updateCurrDst(36792)
updateCurrDst(36873)
updateCurrDst(36910)
updateCurrDst(36926)
updateCurrDst(36928)
updateCurrDst(36939)
updateCurrDst(36988)
updateCurrDst(37082)
updateCurrDst(37156)
updateCurrDst(37175)
updateCurrDst(37193)
updateCurrDst(37353)
updateCurrDst(37551)
updateCurrDst(37614)
updateCurrDst(37770)
updateCurrDst(37798)
updateCurrDst(37863)
updateCurrDst(37877)
updateCurrDst(37897)
updateCurrDst(37966)
updateCurrDst(38058)
updateCurrDst(38138)
updateCurrDst(38260)
updateCurrDst(38363)
Heartbeat CPU 0 instructions: 21000001 cycles: 17193365 heartbeat IPC: 0.34116 cumulative IPC: 0.340955 (Simulation time: 0 hr 1 min 6 sec) 
updateCurrDst(38568)
updateCurrDst(38693)
updateCurrDst(38697)
updateCurrDst(38853)
updateCurrDst(39090)
updateCurrDst(39594)
updateCurrDst(39877)
updateCurrDst(39887)
updateCurrDst(39926)
updateCurrDst(39968)
updateCurrDst(40110)
updateCurrDst(40138)
updateCurrDst(40224)
updateCurrDst(40246)
updateCurrDst(40345)
updateCurrDst(40406)
updateCurrDst(40459)
updateCurrDst(40629)
Heartbeat CPU 0 instructions: 22000000 cycles: 20124300 heartbeat IPC: 0.341188 cumulative IPC: 0.341001 (Simulation time: 0 hr 1 min 10 sec) 
updateCurrDst(40673)
updateCurrDst(40802)
updateCurrDst(40975)
updateCurrDst(40992)
updateCurrDst(41050)
updateCurrDst(41056)
updateCurrDst(41058)
updateCurrDst(41067)
updateCurrDst(41348)
updateCurrDst(41595)
updateCurrDst(41671)
updateCurrDst(41845)
updateCurrDst(41869)
updateCurrDst(42228)
updateCurrDst(42714)
Heartbeat CPU 0 instructions: 23000000 cycles: 23058659 heartbeat IPC: 0.34079 cumulative IPC: 0.340966 (Simulation time: 0 hr 1 min 13 sec) 
updateCurrDst(42734)
updateCurrDst(42950)
updateCurrDst(43045)
updateCurrDst(43070)
updateCurrDst(43126)
updateCurrDst(43148)
updateCurrDst(43153)
updateCurrDst(43437)
updateCurrDst(43564)
updateCurrDst(43587)
updateCurrDst(43606)
updateCurrDst(43871)
updateCurrDst(43939)
updateCurrDst(43948)
updateCurrDst(44001)
updateCurrDst(44052)
updateCurrDst(44099)
updateCurrDst(44202)
updateCurrDst(44337)
updateCurrDst(44418)
updateCurrDst(44588)
updateCurrDst(44687)
updateCurrDst(44766)
Heartbeat CPU 0 instructions: 24000001 cycles: 25991581 heartbeat IPC: 0.340957 cumulative IPC: 0.340965 (Simulation time: 0 hr 1 min 17 sec) 
updateCurrDst(44859)
updateCurrDst(45102)
updateCurrDst(45417)
updateCurrDst(45450)
updateCurrDst(45454)
updateCurrDst(45456)
updateCurrDst(45671)
updateCurrDst(45697)
updateCurrDst(45740)
updateCurrDst(45958)
updateCurrDst(45977)
updateCurrDst(45983)
updateCurrDst(46081)
updateCurrDst(46095)
updateCurrDst(46204)
updateCurrDst(46258)
updateCurrDst(46276)
updateCurrDst(46345)
updateCurrDst(46351)
updateCurrDst(46560)
updateCurrDst(46821)
updateCurrDst(46828)
updateCurrDst(46840)
updateCurrDst(46844)
Heartbeat CPU 0 instructions: 25000002 cycles: 28921688 heartbeat IPC: 0.341285 cumulative IPC: 0.341005 (Simulation time: 0 hr 1 min 21 sec) 
updateCurrDst(46932)
updateCurrDst(47001)
updateCurrDst(47038)
updateCurrDst(47064)
updateCurrDst(47219)
updateCurrDst(47291)
updateCurrDst(47394)
updateCurrDst(47567)
updateCurrDst(47610)
updateCurrDst(47659)
updateCurrDst(47847)
updateCurrDst(47925)
updateCurrDst(47945)
updateCurrDst(47959)
updateCurrDst(48097)
updateCurrDst(48121)
updateCurrDst(48198)
updateCurrDst(48270)
updateCurrDst(48366)
updateCurrDst(48396)
updateCurrDst(48444)
updateCurrDst(48584)
updateCurrDst(48594)
updateCurrDst(48627)
updateCurrDst(48719)
updateCurrDst(48826)
updateCurrDst(48885)
Heartbeat CPU 0 instructions: 26000000 cycles: 31856115 heartbeat IPC: 0.340781 cumulative IPC: 0.34098 (Simulation time: 0 hr 1 min 24 sec) 
updateCurrDst(48975)
updateCurrDst(49319)
updateCurrDst(49350)
updateCurrDst(49452)
updateCurrDst(49524)
updateCurrDst(49526)
updateCurrDst(49696)
updateCurrDst(49745)
updateCurrDst(49749)
updateCurrDst(49831)
updateCurrDst(50145)
updateCurrDst(50225)
updateCurrDst(50280)
updateCurrDst(50331)
updateCurrDst(50391)
updateCurrDst(50439)
updateCurrDst(50782)
updateCurrDst(50813)
updateCurrDst(50883)
updateCurrDst(50905)
updateCurrDst(50996)
Heartbeat CPU 0 instructions: 27000000 cycles: 34788213 heartbeat IPC: 0.341053 cumulative IPC: 0.340987 (Simulation time: 0 hr 1 min 28 sec) 
updateCurrDst(51115)
updateCurrDst(51196)
updateCurrDst(51209)
updateCurrDst(51371)
updateCurrDst(51516)
updateCurrDst(51547)
updateCurrDst(51694)
updateCurrDst(51712)
updateCurrDst(51718)
updateCurrDst(51810)
updateCurrDst(51848)
updateCurrDst(51908)
updateCurrDst(51993)
updateCurrDst(52050)
updateCurrDst(52060)
updateCurrDst(52064)
updateCurrDst(52180)
updateCurrDst(52270)
updateCurrDst(52396)
updateCurrDst(52579)
updateCurrDst(52626)
updateCurrDst(52662)
updateCurrDst(52730)
updateCurrDst(52957)
updateCurrDst(52974)
updateCurrDst(52975)
Heartbeat CPU 0 instructions: 28000000 cycles: 37721294 heartbeat IPC: 0.340938 cumulative IPC: 0.340983 (Simulation time: 0 hr 1 min 32 sec) 
updateCurrDst(53171)
updateCurrDst(53377)
updateCurrDst(53470)
updateCurrDst(53650)
updateCurrDst(53871)
updateCurrDst(53956)
updateCurrDst(54030)
updateCurrDst(54128)
updateCurrDst(54214)
updateCurrDst(54223)
updateCurrDst(54278)
updateCurrDst(54565)
updateCurrDst(54757)
updateCurrDst(54822)
updateCurrDst(54918)
updateCurrDst(54965)
updateCurrDst(55126)
updateCurrDst(55170)
Heartbeat CPU 0 instructions: 29000000 cycles: 40653761 heartbeat IPC: 0.34101 cumulative IPC: 0.340985 (Simulation time: 0 hr 1 min 36 sec) 
updateCurrDst(55340)
updateCurrDst(55366)
updateCurrDst(55396)
updateCurrDst(55569)
updateCurrDst(55763)
updateCurrDst(55822)
updateCurrDst(55891)
updateCurrDst(56169)
updateCurrDst(56195)
updateCurrDst(56204)
updateCurrDst(56209)
updateCurrDst(56295)
updateCurrDst(56297)
updateCurrDst(56351)
updateCurrDst(56397)
updateCurrDst(56470)
updateCurrDst(56791)
updateCurrDst(56910)
updateCurrDst(56943)
updateCurrDst(56988)
updateCurrDst(57025)
updateCurrDst(57082)
Heartbeat CPU 0 instructions: 30000001 cycles: 43587476 heartbeat IPC: 0.340865 cumulative IPC: 0.340976 (Simulation time: 0 hr 1 min 39 sec) 
updateCurrDst(57376)
updateCurrDst(57399)
updateCurrDst(57472)
updateCurrDst(57476)
updateCurrDst(57497)
updateCurrDst(57690)
updateCurrDst(58251)
updateCurrDst(58258)
updateCurrDst(58405)
updateCurrDst(58515)
updateCurrDst(58663)
updateCurrDst(58753)
updateCurrDst(58769)
updateCurrDst(58835)
updateCurrDst(58884)
updateCurrDst(59068)
updateCurrDst(59084)
updateCurrDst(59146)
updateCurrDst(59168)
updateCurrDst(59216)
Heartbeat CPU 0 instructions: 31000000 cycles: 46517769 heartbeat IPC: 0.341262 cumulative IPC: 0.340996 (Simulation time: 0 hr 1 min 43 sec) 
updateCurrDst(59412)
updateCurrDst(59480)
updateCurrDst(59637)
updateCurrDst(59931)
updateCurrDst(59950)
updateCurrDst(60016)
updateCurrDst(60031)
updateCurrDst(60053)
updateCurrDst(60119)
updateCurrDst(60219)
updateCurrDst(60252)
updateCurrDst(60390)
updateCurrDst(60438)
updateCurrDst(60453)
updateCurrDst(60730)
updateCurrDst(60782)
updateCurrDst(60794)
updateCurrDst(60952)
updateCurrDst(60964)
updateCurrDst(61120)
updateCurrDst(61229)
updateCurrDst(61295)
Heartbeat CPU 0 instructions: 32000000 cycles: 49450770 heartbeat IPC: 0.340948 cumulative IPC: 0.340993 (Simulation time: 0 hr 1 min 48 sec) 
updateCurrDst(61481)
updateCurrDst(61614)
updateCurrDst(61857)
updateCurrDst(61935)
updateCurrDst(62035)
updateCurrDst(62126)
updateCurrDst(62250)
updateCurrDst(62308)
updateCurrDst(62383)
updateCurrDst(62396)
updateCurrDst(62561)
updateCurrDst(62688)
updateCurrDst(62716)
updateCurrDst(62769)
updateCurrDst(62881)
updateCurrDst(62895)
updateCurrDst(62926)
updateCurrDst(62958)
updateCurrDst(62978)
updateCurrDst(63262)
Heartbeat CPU 0 instructions: 33000000 cycles: 52384383 heartbeat IPC: 0.340877 cumulative IPC: 0.340986 (Simulation time: 0 hr 1 min 52 sec) 
updateCurrDst(63519)
updateCurrDst(63586)
updateCurrDst(63615)
updateCurrDst(63616)
updateCurrDst(63842)
updateCurrDst(63846)
updateCurrDst(64120)
updateCurrDst(64137)
updateCurrDst(64419)
updateCurrDst(64475)
updateCurrDst(64645)
updateCurrDst(64684)
updateCurrDst(64829)
updateCurrDst(64990)
updateCurrDst(65148)
updateCurrDst(65268)
updateCurrDst(65276)
updateCurrDst(65282)
updateCurrDst(65297)
updateCurrDst(65369)
updateCurrDst(65401)
*** Reached end of trace for Core: 0 Repeating trace: ./tracer/pull_u16_k3.xzafter: 33978770
Heartbeat CPU 0 instructions: 34000002 cycles: 55375567 heartbeat IPC: 0.334316 cumulative IPC: 0.340586 (Simulation time: 0 hr 1 min 55 sec) 
Finished CPU 0 instructions: 17000003 cycles: 49913972 cumulative IPC: 0.340586 (Simulation time: 0 hr 1 min 55 sec) 

ChampSim completed all CPUs

Region of Interest Statistics

CPU 0 cumulative IPC: 0.340586 instructions: 17000003 cycles: 49913972

Total ROB STALLS:                    6777270
STLB MISS ROB STALLS:                    221
L1D  LOAD MISS ROB STALLS:            196173  Translation MISS ROB STALLS:             0
L2C  LOAD MISS ROB STALLS:             20143  Translation MISS ROB STALLS:             0
LLC  LOAD MISS ROB STALLS:             13397  Translation MISS ROB STALLS:             0

ITLB TOTAL     ACCESS:           2302903  HIT:    2302874  MISS:         29  HIT %:    99.9987  MISS %: 0.00125928   MPKI: 0.00170588
ITLB LOAD TRANSLATION ACCESS:    2302903  HIT:    2302874  MISS:         29  HIT %:    99.9987  MISS %: 0.00125928   MPKI: 0.00170588
ITLB AVERAGE MISS LATENCY:       202.931 cycles
ITLB RQ ACCESS:     2513459	FORWARD:           0	MERGED:       210556	TO_CACHE:    2302903

DTLB TOTAL     ACCESS:           5009791  HIT:    4991664  MISS:      18127  HIT %:    99.6382  MISS %:   0.361831   MPKI: 1.06629
DTLB LOAD TRANSLATION ACCESS:    5009791  HIT:    4991664  MISS:      18127  HIT %:    99.6382  MISS %:   0.361831   MPKI: 1.06629
DTLB AVERAGE MISS LATENCY:       12.0741 cycles
DTLB RQ ACCESS:     6891909	FORWARD:           0	MERGED:      1882116	TO_CACHE:    5009793

STLB TOTAL     ACCESS:             18156  HIT:      17908  MISS:        248  HIT %:    98.6341  MISS %:    1.36594   MPKI: 0.0145882
STLB LOAD TRANSLATION ACCESS:      18156  HIT:      17908  MISS:        248  HIT %:    98.6341  MISS %:    1.36594   MPKI: 0.0145882
STLB AVERAGE MISS LATENCY:       247.371 cycles
STLB RQ ACCESS:       18156	FORWARD:           0	MERGED:            0	TO_CACHE:      18156

PSCL5 TOTAL     ACCESS:               248  HIT:        248  MISS:          0  HIT %:        100  MISS %:          0   MPKI: 0
PSCL5 LOAD TRANSLATION ACCESS:        248  HIT:        248  MISS:          0  HIT %:        100  MISS %:          0   MPKI: 0

PSCL4 TOTAL     ACCESS:               248  HIT:        248  MISS:          0  HIT %:        100  MISS %:          0   MPKI: 0
PSCL4 LOAD TRANSLATION ACCESS:        248  HIT:        248  MISS:          0  HIT %:        100  MISS %:          0   MPKI: 0

PSCL3 TOTAL     ACCESS:               248  HIT:        248  MISS:          0  HIT %:        100  MISS %:          0   MPKI: 0
PSCL3 LOAD TRANSLATION ACCESS:        248  HIT:        248  MISS:          0  HIT %:        100  MISS %:          0   MPKI: 0

PSCL2 TOTAL     ACCESS:               248  HIT:        248  MISS:          0  HIT %:        100  MISS %:          0   MPKI: 0
PSCL2 LOAD TRANSLATION ACCESS:        248  HIT:        248  MISS:          0  HIT %:        100  MISS %:          0   MPKI: 0

L1D TOTAL     ACCESS:           6891826  HIT:    6695496  MISS:     196330  HIT %:    97.1513  MISS %:    2.84874   MPKI: 11.5488  USED:      49678  UNUSED:     146652
L1D LOAD      ACCESS:           2970685  HIT:    2774459  MISS:     196226  HIT %:    93.3946  MISS %:    6.60541   MPKI: 11.5427  USED:      49678  UNUSED:     146652
L1D RFO       ACCESS:           3921141  HIT:    3921037  MISS:        104  HIT %:    99.9973  MISS %: 0.00265229   MPKI: 0.00611765
L1D PTL1 TRANSLATION ACCESS:          0  HIT:          0  MISS:          0  HIT %:       -nan  MISS %:       -nan   MPKI: 0
L1D PTL2 TRANSLATION ACCESS:          0  HIT:          0  MISS:          0  HIT %:       -nan  MISS %:       -nan   MPKI: 0
L1D PTL3 TRANSLATION ACCESS:          0  HIT:          0  MISS:          0  HIT %:       -nan  MISS %:       -nan   MPKI: 0
L1D PTL4 TRANSLATION ACCESS:          0  HIT:          0  MISS:          0  HIT %:       -nan  MISS %:       -nan   MPKI: 0
L1D PTL5 TRANSLATION ACCESS:          0  HIT:          0  MISS:          0  HIT %:       -nan  MISS %:       -nan   MPKI: 0
L1D TOTAL EVICTIONS:             196330  TRANSLATION EVICTIONS:          0  TRANSLATION EVICTING TRANSALTION:          0  TRANSLATION EVICTING LOAD:          0  LOAD EVICTING TRANSALTION:          0  LOAD EVICTING LOAD:      196226
L1D AVERAGE MISS LATENCY:       23.1811 cycles  AVERAGE LOAD MISS LATENCY:       23.1553 cycles  AVERAGE LOAD TRANSLATION MISS LATENCY:          -nan cycles
L1D RQ ACCESS:     4318101	FORWARD:           0	MERGED:       922536	TO_CACHE:    2970712
L1D WQ ACCESS:     3921212	FORWARD:      424853	MERGED:           15	TO_CACHE:    3921197

L1I TOTAL     ACCESS:           2513454  HIT:    2513311  MISS:        143  HIT %:    99.9943  MISS %: 0.00568938   MPKI: 0.00841176
L1I LOAD      ACCESS:           2513454  HIT:    2513311  MISS:        143  HIT %:    99.9943  MISS %: 0.00568938   MPKI: 0.00841176
L1I AVERAGE MISS LATENCY:       186.762 cycles
L1I RQ ACCESS:     3970313	FORWARD:           0	MERGED:      1456854	TO_CACHE:    2513459

L2C TOTAL     ACCESS:            198682  HIT:     178238  MISS:      20444  HIT %:    89.7102  MISS %:    10.2898   MPKI: 1.20259  USED:         48  UNUSED:      20396
L2C LOAD      ACCESS:            196368  HIT:     176028  MISS:      20340  HIT %:    89.6419  MISS %:    10.3581   MPKI: 1.19647  USED:         22  UNUSED:      20396
L2C RFO       ACCESS:               104  HIT:          0  MISS:        104  HIT %:          0  MISS %:        100   MPKI: 0.00611765
L2C WRITEBACK ACCESS:              2210  HIT:       2210  MISS:          0  HIT %:        100  MISS %:          0   MPKI: 0
L2C PTL1 TRANSLATION ACCESS:          0  HIT:          0  MISS:          0  HIT %:       -nan  MISS %:       -nan   MPKI: 0
L2C PTL2 TRANSLATION ACCESS:          0  HIT:          0  MISS:          0  HIT %:       -nan  MISS %:       -nan   MPKI: 0
L2C PTL3 TRANSLATION ACCESS:          0  HIT:          0  MISS:          0  HIT %:       -nan  MISS %:       -nan   MPKI: 0
L2C PTL4 TRANSLATION ACCESS:          0  HIT:          0  MISS:          0  HIT %:       -nan  MISS %:       -nan   MPKI: 0
L2C PTL5 TRANSLATION ACCESS:          0  HIT:          0  MISS:          0  HIT %:       -nan  MISS %:       -nan   MPKI: 0
L2C TOTAL EVICTIONS:              20444  TRANSLATION EVICTIONS:          0  TRANSLATION EVICTING TRANSALTION:          0  TRANSLATION EVICTING LOAD:          0  LOAD EVICTING TRANSALTION:          0  LOAD EVICTING LOAD:       20316
L2C AVERAGE MISS LATENCY:        79.774 cycles  AVERAGE LOAD MISS LATENCY:       79.8905 cycles  AVERAGE LOAD TRANSLATION MISS LATENCY:          -nan cycles
L2C RQ ACCESS:      196472	FORWARD:           0	MERGED:            0	TO_CACHE:     196472
L2C WQ ACCESS:        2210	FORWARD:           0	MERGED:            0	TO_CACHE:       2210

LLC TOTAL     ACCESS:             22715  HIT:       9104  MISS:      13611  HIT %:    40.0792  MISS %:    59.9208   MPKI: 0.800647  USED:          0  UNUSED:          0
LLC LOAD      ACCESS:             20340  HIT:       6777  MISS:      13563  HIT %:    33.3186  MISS %:    66.6814   MPKI: 0.797823  USED:          0  UNUSED:          0
LLC RFO       ACCESS:               104  HIT:         87  MISS:         17  HIT %:    83.6538  MISS %:    16.3462   MPKI: 0.001
LLC WRITEBACK ACCESS:              2271  HIT:       2240  MISS:         31  HIT %:     98.635  MISS %:    1.36504   MPKI: 0.00182353
LLC PTL1 TRANSLATION ACCESS:          0  HIT:          0  MISS:          0  HIT %:       -nan  MISS %:       -nan   MPKI: 0
LLC PTL2 TRANSLATION ACCESS:          0  HIT:          0  MISS:          0  HIT %:       -nan  MISS %:       -nan   MPKI: 0
LLC PTL3 TRANSLATION ACCESS:          0  HIT:          0  MISS:          0  HIT %:       -nan  MISS %:       -nan   MPKI: 0
LLC PTL4 TRANSLATION ACCESS:          0  HIT:          0  MISS:          0  HIT %:       -nan  MISS %:       -nan   MPKI: 0
LLC PTL5 TRANSLATION ACCESS:          0  HIT:          0  MISS:          0  HIT %:       -nan  MISS %:       -nan   MPKI: 0
LLC TOTAL EVICTIONS:                  0  TRANSLATION EVICTIONS:          0  TRANSLATION EVICTING TRANSALTION:          0  TRANSLATION EVICTING LOAD:          0  LOAD EVICTING TRANSALTION:          0  LOAD EVICTING LOAD:           0
LLC AVERAGE MISS LATENCY:       74.7265 cycles  AVERAGE LOAD MISS LATENCY:       74.7847 cycles  AVERAGE LOAD TRANSLATION MISS LATENCY:          -nan cycles
LLC RQ ACCESS:       20444	FORWARD:           0	MERGED:            0	TO_CACHE:      20444
LLC WQ ACCESS:        2271	FORWARD:           0	MERGED:            0	TO_CACHE:       2271


RAW hits: 2890872
Loads Generated: 7208973
Loads sent to L1D: 4318101
Stores Generated: 3921211
Stores sent to L1D: 3921212
Major fault: 0 Minor fault: 893
Allocated PAGES: 893
IRREG DATA L1D ACCESS: 393192
L2C ACCESSES: 327114
L2C MISSES: 1185
Total LLC accesses: 47347
Total Irreg accesses: 2168

DRAM Statistics
 CHANNEL 0
 RQ ROW_BUFFER_HIT:      12932  ROW_BUFFER_MISS:        896
 DBUS_CONGESTED:          0
 WQ ROW_BUFFER_HIT:          0  ROW_BUFFER_MISS:         31  FULL:          0

 AVG_CONGESTED_CYCLE: -

CPU 0 Branch Prediction Accuracy: 98.3026% MPKI: 2.08271 Average ROB Occupancy at Mispredict: 16.1373
Branch types
NOT_BRANCH: 14914166 87.7304%
BRANCH_DIRECT_JUMP: 0 0%
BRANCH_INDIRECT: 247803 1.45766%
BRANCH_CONDITIONAL: 0 0%
BRANCH_DIRECT_CALL: 35269 0.207465%
BRANCH_INDIRECT_CALL: 706414 4.15538%
BRANCH_RETURN: 741683 4.36284%
BRANCH_OTHER: 354672 2.08631%

DRAM PAGES: 1048576
Allocated PAGES: 893
