
*** ChampSim Multicore Out-of-Order Simulator ***

Warmup Instructions: 17000000
Simulation Instructions: 17000000
Number of CPUs: 1
LLC sets: 2048
LLC ways: 16
Off-chip DRAM Size: 4096 MB Channels: 1 Width: 64-bit Data Rate: 6400 MT/s
CPU 0 runs ./tracer/pull_u16_k3.xz
.xz
BTB has LRU replacement policy
ITLB has LRU replacement policy
DTLB has LRU replacement policy
STLB has LRU replacement policy
L1I has LRU replacement policy
L1D has LRU replacement policy
L2C has LRU replacement policy
LLC has LRU replacement policy
Heartbeat CPU 0 instructions: 1000000 cycles: 350520 heartbeat IPC: 2.8529 cumulative IPC: 2.8529 (Simulation time: 0 hr 0 min 2 sec) 
PIN_registerGraphs(random_u16_k3.sg,1)
Graphh Number of Nodes: 65536
Heartbeat CPU 0 instructions: 2000000 cycles: 690866 heartbeat IPC: 2.93819 cumulative IPC: 2.89492 (Simulation time: 0 hr 0 min 4 sec) 
PIN_updateRegBaseBound( 94614838350032, 94614838612176)
updateCurrDst(120)
updateCurrDst(182)
updateCurrDst(237)
updateCurrDst(329)
updateCurrDst(489)
updateCurrDst(503)
updateCurrDst(562)
updateCurrDst(585)
updateCurrDst(772)
updateCurrDst(795)
updateCurrDst(883)
updateCurrDst(1022)
updateCurrDst(1058)
updateCurrDst(1071)
Heartbeat CPU 0 instructions: 3000001 cycles: 1015874 heartbeat IPC: 3.07685 cumulative IPC: 2.95312 (Simulation time: 0 hr 0 min 7 sec) 
updateCurrDst(1269)
updateCurrDst(1556)
updateCurrDst(1597)
updateCurrDst(1729)
updateCurrDst(1864)
updateCurrDst(2025)
updateCurrDst(2228)
updateCurrDst(2235)
updateCurrDst(2374)
updateCurrDst(2376)
updateCurrDst(2405)
updateCurrDst(2435)
updateCurrDst(2471)
updateCurrDst(2493)
updateCurrDst(2606)
updateCurrDst(2897)
updateCurrDst(3151)
updateCurrDst(3187)
Heartbeat CPU 0 instructions: 4000001 cycles: 1333490 heartbeat IPC: 3.14846 cumulative IPC: 2.99965 (Simulation time: 0 hr 0 min 10 sec) 
updateCurrDst(3376)
updateCurrDst(3481)
updateCurrDst(3512)
updateCurrDst(3580)
updateCurrDst(3815)
updateCurrDst(3976)
updateCurrDst(4343)
updateCurrDst(4589)
updateCurrDst(4600)
updateCurrDst(4642)
updateCurrDst(4691)
updateCurrDst(4703)
updateCurrDst(4885)
updateCurrDst(4886)
updateCurrDst(4995)
updateCurrDst(5054)
updateCurrDst(5094)
updateCurrDst(5096)
updateCurrDst(5119)
updateCurrDst(5247)
updateCurrDst(5270)
updateCurrDst(5271)
Heartbeat CPU 0 instructions: 5000000 cycles: 1650862 heartbeat IPC: 3.15087 cumulative IPC: 3.02872 (Simulation time: 0 hr 0 min 13 sec) 
updateCurrDst(5348)
updateCurrDst(5440)
updateCurrDst(5495)
updateCurrDst(5531)
updateCurrDst(5542)
updateCurrDst(5767)
updateCurrDst(6029)
updateCurrDst(6037)
updateCurrDst(6050)
updateCurrDst(6154)
updateCurrDst(6280)
updateCurrDst(6586)
updateCurrDst(6675)
updateCurrDst(6768)
updateCurrDst(6900)
updateCurrDst(6942)
updateCurrDst(7060)
updateCurrDst(7274)
updateCurrDst(7348)
Heartbeat CPU 0 instructions: 6000002 cycles: 1968545 heartbeat IPC: 3.1478 cumulative IPC: 3.04794 (Simulation time: 0 hr 0 min 16 sec) 
updateCurrDst(7484)
updateCurrDst(7488)
updateCurrDst(7692)
updateCurrDst(7816)
updateCurrDst(7830)
updateCurrDst(7838)
updateCurrDst(7926)
updateCurrDst(7995)
updateCurrDst(8126)
updateCurrDst(8179)
updateCurrDst(8256)
updateCurrDst(8378)
updateCurrDst(8614)
updateCurrDst(8737)
updateCurrDst(8869)
updateCurrDst(8939)
updateCurrDst(9004)
updateCurrDst(9043)
updateCurrDst(9107)
Heartbeat CPU 0 instructions: 7000001 cycles: 2285578 heartbeat IPC: 3.15424 cumulative IPC: 3.06268 (Simulation time: 0 hr 0 min 19 sec) 
updateCurrDst(9515)
updateCurrDst(9625)
updateCurrDst(9710)
updateCurrDst(9811)
updateCurrDst(9868)
updateCurrDst(9940)
updateCurrDst(9981)
updateCurrDst(10012)
updateCurrDst(10065)
updateCurrDst(10131)
updateCurrDst(10153)
updateCurrDst(10172)
updateCurrDst(10181)
updateCurrDst(10389)
updateCurrDst(10434)
updateCurrDst(10598)
updateCurrDst(10604)
updateCurrDst(10608)
updateCurrDst(10656)
updateCurrDst(10665)
updateCurrDst(10707)
updateCurrDst(10879)
updateCurrDst(10969)
updateCurrDst(11125)
updateCurrDst(11190)
updateCurrDst(11472)
Heartbeat CPU 0 instructions: 8000001 cycles: 2603164 heartbeat IPC: 3.14875 cumulative IPC: 3.07318 (Simulation time: 0 hr 0 min 22 sec) 
updateCurrDst(11602)
updateCurrDst(11705)
updateCurrDst(11727)
updateCurrDst(11814)
updateCurrDst(11878)
updateCurrDst(12168)
updateCurrDst(12589)
updateCurrDst(12667)
updateCurrDst(12751)
updateCurrDst(12758)
updateCurrDst(12958)
updateCurrDst(13183)
updateCurrDst(13245)
updateCurrDst(13330)
updateCurrDst(13416)
updateCurrDst(13423)
Heartbeat CPU 0 instructions: 9000001 cycles: 2921038 heartbeat IPC: 3.1459 cumulative IPC: 3.0811 (Simulation time: 0 hr 0 min 25 sec) 
updateCurrDst(14055)
updateCurrDst(14077)
updateCurrDst(14227)
updateCurrDst(14232)
updateCurrDst(14247)
updateCurrDst(14250)
updateCurrDst(14291)
updateCurrDst(14408)
updateCurrDst(14439)
updateCurrDst(14586)
updateCurrDst(14976)
updateCurrDst(15124)
updateCurrDst(15141)
updateCurrDst(15196)
updateCurrDst(15343)
updateCurrDst(15356)
updateCurrDst(15402)
updateCurrDst(15544)
updateCurrDst(15588)
Heartbeat CPU 0 instructions: 10000003 cycles: 3238531 heartbeat IPC: 3.14968 cumulative IPC: 3.08782 (Simulation time: 0 hr 0 min 28 sec) 
updateCurrDst(15708)
updateCurrDst(16051)
updateCurrDst(16151)
updateCurrDst(16177)
updateCurrDst(16277)
updateCurrDst(16322)
updateCurrDst(16386)
updateCurrDst(16436)
updateCurrDst(16514)
updateCurrDst(16651)
updateCurrDst(16809)
updateCurrDst(16881)
updateCurrDst(16909)
updateCurrDst(16932)
updateCurrDst(16943)
updateCurrDst(16948)
updateCurrDst(17252)
updateCurrDst(17465)
updateCurrDst(17514)
updateCurrDst(17708)
updateCurrDst(17720)
Heartbeat CPU 0 instructions: 11000000 cycles: 3555967 heartbeat IPC: 3.15023 cumulative IPC: 3.09339 (Simulation time: 0 hr 0 min 31 sec) 
updateCurrDst(17842)
updateCurrDst(17913)
updateCurrDst(17925)
updateCurrDst(17991)
updateCurrDst(18692)
updateCurrDst(18845)
updateCurrDst(18868)
updateCurrDst(18943)
updateCurrDst(18947)
updateCurrDst(19077)
updateCurrDst(19198)
updateCurrDst(19265)
updateCurrDst(19303)
updateCurrDst(19337)
updateCurrDst(19439)
updateCurrDst(19470)
updateCurrDst(19494)
updateCurrDst(19656)
updateCurrDst(19729)
updateCurrDst(19789)
Heartbeat CPU 0 instructions: 12000000 cycles: 3873393 heartbeat IPC: 3.15034 cumulative IPC: 3.09806 (Simulation time: 0 hr 0 min 34 sec) 
updateCurrDst(19853)
updateCurrDst(19959)
updateCurrDst(20105)
updateCurrDst(20120)
updateCurrDst(20508)
updateCurrDst(20612)
updateCurrDst(20831)
updateCurrDst(20941)
updateCurrDst(21245)
updateCurrDst(21299)
updateCurrDst(21393)
updateCurrDst(21414)
updateCurrDst(21509)
updateCurrDst(21582)
updateCurrDst(21638)
updateCurrDst(21658)
updateCurrDst(21812)
updateCurrDst(21919)
Heartbeat CPU 0 instructions: 13000002 cycles: 4191241 heartbeat IPC: 3.14616 cumulative IPC: 3.10171 (Simulation time: 0 hr 0 min 37 sec) 
updateCurrDst(22119)
updateCurrDst(22267)
updateCurrDst(22447)
updateCurrDst(22599)
updateCurrDst(22616)
updateCurrDst(22626)
updateCurrDst(22649)
updateCurrDst(22984)
updateCurrDst(23153)
updateCurrDst(23487)
updateCurrDst(23671)
updateCurrDst(23760)
updateCurrDst(23879)
updateCurrDst(23891)
updateCurrDst(23968)
Heartbeat CPU 0 instructions: 14000000 cycles: 4508882 heartbeat IPC: 3.1482 cumulative IPC: 3.10498 (Simulation time: 0 hr 0 min 40 sec) 
updateCurrDst(24040)
updateCurrDst(24122)
updateCurrDst(24259)
updateCurrDst(24341)
updateCurrDst(24348)
updateCurrDst(24418)
updateCurrDst(24419)
updateCurrDst(24535)
updateCurrDst(24587)
updateCurrDst(24693)
updateCurrDst(24799)
updateCurrDst(24839)
updateCurrDst(25180)
updateCurrDst(25217)
updateCurrDst(25236)
updateCurrDst(25462)
updateCurrDst(25810)
updateCurrDst(25958)
updateCurrDst(25979)
Heartbeat CPU 0 instructions: 15000000 cycles: 4826564 heartbeat IPC: 3.1478 cumulative IPC: 3.1078 (Simulation time: 0 hr 0 min 43 sec) 
updateCurrDst(26118)
updateCurrDst(26190)
updateCurrDst(26229)
updateCurrDst(26342)
updateCurrDst(26463)
updateCurrDst(26517)
updateCurrDst(26592)
updateCurrDst(26797)
updateCurrDst(26850)
updateCurrDst(26932)
updateCurrDst(26959)
updateCurrDst(27002)
updateCurrDst(27010)
updateCurrDst(27105)
updateCurrDst(27127)
updateCurrDst(27216)
updateCurrDst(27265)
updateCurrDst(27283)
updateCurrDst(27289)
updateCurrDst(27444)
updateCurrDst(27453)
updateCurrDst(27455)
updateCurrDst(27543)
updateCurrDst(27589)
updateCurrDst(27629)
updateCurrDst(27753)
updateCurrDst(27775)
updateCurrDst(27799)
updateCurrDst(27935)
updateCurrDst(28001)
updateCurrDst(28004)
updateCurrDst(28132)
updateCurrDst(28175)
Heartbeat CPU 0 instructions: 16000001 cycles: 5143879 heartbeat IPC: 3.15145 cumulative IPC: 3.11049 (Simulation time: 0 hr 0 min 46 sec) 
updateCurrDst(28304)
updateCurrDst(28371)
updateCurrDst(28446)
updateCurrDst(28504)
updateCurrDst(28648)
updateCurrDst(28709)
updateCurrDst(28732)
updateCurrDst(28836)
updateCurrDst(28973)
updateCurrDst(29163)
updateCurrDst(29212)
updateCurrDst(29236)
updateCurrDst(29376)
updateCurrDst(29523)
updateCurrDst(29535)
updateCurrDst(29623)
updateCurrDst(30085)
updateCurrDst(30261)
Heartbeat CPU 0 instructions: 17000000 cycles: 5461562 heartbeat IPC: 3.14779 cumulative IPC: 3.11266 (Simulation time: 0 hr 0 min 49 sec) 

Warmup complete CPU 0 instructions: 17000004 cycles: 5461563 (Simulation time: 0 hr 0 min 49 sec) 

updateCurrDst(30376)
updateCurrDst(30404)
updateCurrDst(30542)
updateCurrDst(30583)
updateCurrDst(30745)
updateCurrDst(30822)
updateCurrDst(30924)
updateCurrDst(31058)
updateCurrDst(31085)
updateCurrDst(31275)
updateCurrDst(31339)
updateCurrDst(31373)
updateCurrDst(31449)
updateCurrDst(31464)
updateCurrDst(31615)
updateCurrDst(31855)
updateCurrDst(31921)
updateCurrDst(31940)
updateCurrDst(32139)
Heartbeat CPU 0 instructions: 18000000 cycles: 8465825 heartbeat IPC: 0.33286 cumulative IPC: 0.332859 (Simulation time: 0 hr 0 min 52 sec) 
updateCurrDst(32340)
updateCurrDst(32504)
updateCurrDst(32881)
updateCurrDst(32882)
updateCurrDst(32924)
updateCurrDst(33081)
updateCurrDst(33221)
updateCurrDst(33410)
updateCurrDst(33542)
updateCurrDst(33924)
updateCurrDst(34013)
updateCurrDst(34051)
updateCurrDst(34071)
updateCurrDst(34138)
updateCurrDst(34160)
updateCurrDst(34171)
Heartbeat CPU 0 instructions: 19000003 cycles: 11455034 heartbeat IPC: 0.334538 cumulative IPC: 0.333696 (Simulation time: 0 hr 0 min 56 sec) 
updateCurrDst(34488)
updateCurrDst(34566)
updateCurrDst(34592)
updateCurrDst(34815)
updateCurrDst(34923)
updateCurrDst(34952)
updateCurrDst(34983)
updateCurrDst(35121)
updateCurrDst(35162)
updateCurrDst(35200)
updateCurrDst(35453)
updateCurrDst(35454)
updateCurrDst(35469)
updateCurrDst(35742)
updateCurrDst(35744)
updateCurrDst(35816)
updateCurrDst(35954)
updateCurrDst(36234)
updateCurrDst(36267)
updateCurrDst(36332)
updateCurrDst(36420)
Heartbeat CPU 0 instructions: 20000002 cycles: 14461472 heartbeat IPC: 0.332619 cumulative IPC: 0.333336 (Simulation time: 0 hr 0 min 59 sec) 
updateCurrDst(36613)
updateCurrDst(36624)
updateCurrDst(36633)
updateCurrDst(36665)
updateCurrDst(36734)
updateCurrDst(36749)
updateCurrDst(37094)
updateCurrDst(37297)
updateCurrDst(37808)
updateCurrDst(38006)
updateCurrDst(38025)
updateCurrDst(38046)
updateCurrDst(38071)
updateCurrDst(38116)
updateCurrDst(38129)
updateCurrDst(38344)
updateCurrDst(38356)
updateCurrDst(38387)
updateCurrDst(38432)
updateCurrDst(38439)
updateCurrDst(38442)
updateCurrDst(38491)
Heartbeat CPU 0 instructions: 21000001 cycles: 17469670 heartbeat IPC: 0.332425 cumulative IPC: 0.333108 (Simulation time: 0 hr 1 min 3 sec) 
updateCurrDst(38776)
updateCurrDst(38801)
updateCurrDst(38893)
updateCurrDst(38908)
updateCurrDst(39136)
updateCurrDst(39216)
updateCurrDst(39259)
updateCurrDst(39503)
updateCurrDst(39632)
updateCurrDst(39681)
updateCurrDst(39778)
updateCurrDst(39907)
updateCurrDst(40106)
updateCurrDst(40285)
updateCurrDst(40413)
updateCurrDst(40587)
Heartbeat CPU 0 instructions: 22000000 cycles: 20491238 heartbeat IPC: 0.330954 cumulative IPC: 0.332675 (Simulation time: 0 hr 1 min 6 sec) 
updateCurrDst(40770)
updateCurrDst(40799)
updateCurrDst(40879)
updateCurrDst(40882)
updateCurrDst(41033)
updateCurrDst(41116)
updateCurrDst(41122)
updateCurrDst(41128)
updateCurrDst(41227)
updateCurrDst(41530)
updateCurrDst(41572)
updateCurrDst(42020)
updateCurrDst(42515)
updateCurrDst(42522)
updateCurrDst(42537)
updateCurrDst(42576)
updateCurrDst(42589)
updateCurrDst(42594)
updateCurrDst(42668)
Heartbeat CPU 0 instructions: 23000000 cycles: 23511040 heartbeat IPC: 0.331148 cumulative IPC: 0.332419 (Simulation time: 0 hr 1 min 9 sec) 
updateCurrDst(42945)
updateCurrDst(42994)
updateCurrDst(43004)
updateCurrDst(43009)
updateCurrDst(43017)
updateCurrDst(43072)
updateCurrDst(43085)
updateCurrDst(43147)
updateCurrDst(43224)
updateCurrDst(43249)
updateCurrDst(43300)
updateCurrDst(43306)
updateCurrDst(43347)
updateCurrDst(43472)
updateCurrDst(43832)
updateCurrDst(43894)
updateCurrDst(43900)
updateCurrDst(43993)
updateCurrDst(44091)
updateCurrDst(44123)
updateCurrDst(44160)
updateCurrDst(44302)
updateCurrDst(44387)
updateCurrDst(44432)
updateCurrDst(44474)
updateCurrDst(44524)
updateCurrDst(44695)
updateCurrDst(44699)
updateCurrDst(44735)
Heartbeat CPU 0 instructions: 24000001 cycles: 26524294 heartbeat IPC: 0.331867 cumulative IPC: 0.33234 (Simulation time: 0 hr 1 min 13 sec) 
updateCurrDst(45130)
updateCurrDst(45255)
updateCurrDst(45414)
updateCurrDst(45600)
updateCurrDst(45631)
updateCurrDst(45686)
updateCurrDst(45737)
updateCurrDst(45945)
updateCurrDst(45962)
updateCurrDst(45970)
updateCurrDst(46023)
updateCurrDst(46240)
updateCurrDst(46333)
updateCurrDst(46607)
updateCurrDst(46719)
updateCurrDst(46886)
updateCurrDst(46892)
Heartbeat CPU 0 instructions: 25000002 cycles: 29527050 heartbeat IPC: 0.333028 cumulative IPC: 0.332426 (Simulation time: 0 hr 1 min 16 sec) 
updateCurrDst(47070)
updateCurrDst(47085)
updateCurrDst(47203)
updateCurrDst(47347)
updateCurrDst(47355)
updateCurrDst(47374)
updateCurrDst(47495)
updateCurrDst(47680)
updateCurrDst(47720)
updateCurrDst(47804)
updateCurrDst(47926)
updateCurrDst(48131)
updateCurrDst(48173)
updateCurrDst(48186)
updateCurrDst(48259)
updateCurrDst(48478)
updateCurrDst(48585)
updateCurrDst(48662)
updateCurrDst(48702)
Heartbeat CPU 0 instructions: 26000000 cycles: 32535802 heartbeat IPC: 0.332363 cumulative IPC: 0.332419 (Simulation time: 0 hr 1 min 19 sec) 
updateCurrDst(49165)
updateCurrDst(49403)
updateCurrDst(49432)
updateCurrDst(49515)
updateCurrDst(49585)
updateCurrDst(49615)
updateCurrDst(49694)
updateCurrDst(49780)
updateCurrDst(49803)
updateCurrDst(49811)
updateCurrDst(49917)
updateCurrDst(50093)
updateCurrDst(50202)
updateCurrDst(50625)
updateCurrDst(50722)
updateCurrDst(50799)
updateCurrDst(50843)
updateCurrDst(50909)
updateCurrDst(50982)
updateCurrDst(51053)
Heartbeat CPU 0 instructions: 27000000 cycles: 35538982 heartbeat IPC: 0.33298 cumulative IPC: 0.332475 (Simulation time: 0 hr 1 min 22 sec) 
updateCurrDst(51109)
updateCurrDst(51396)
updateCurrDst(51412)
updateCurrDst(51427)
updateCurrDst(51460)
updateCurrDst(51620)
updateCurrDst(51631)
updateCurrDst(51634)
updateCurrDst(51993)
updateCurrDst(52053)
updateCurrDst(52096)
updateCurrDst(52214)
updateCurrDst(52355)
updateCurrDst(52481)
updateCurrDst(52879)
updateCurrDst(52915)
updateCurrDst(52925)
updateCurrDst(52998)
Heartbeat CPU 0 instructions: 28000000 cycles: 38564293 heartbeat IPC: 0.330545 cumulative IPC: 0.332299 (Simulation time: 0 hr 1 min 26 sec) 
updateCurrDst(53183)
updateCurrDst(54308)
updateCurrDst(54312)
updateCurrDst(54355)
updateCurrDst(54559)
updateCurrDst(54637)
updateCurrDst(54678)
updateCurrDst(54751)
updateCurrDst(54819)
updateCurrDst(54991)
updateCurrDst(55008)
updateCurrDst(55062)
updateCurrDst(55104)
Heartbeat CPU 0 instructions: 29000000 cycles: 41584654 heartbeat IPC: 0.331086 cumulative IPC: 0.332197 (Simulation time: 0 hr 1 min 29 sec) 
updateCurrDst(55233)
updateCurrDst(55236)
updateCurrDst(55398)
updateCurrDst(55473)
updateCurrDst(55745)
updateCurrDst(55762)
updateCurrDst(55786)
updateCurrDst(55799)
updateCurrDst(55851)
updateCurrDst(55962)
updateCurrDst(56001)
updateCurrDst(56062)
updateCurrDst(56116)
updateCurrDst(56136)
updateCurrDst(56166)
updateCurrDst(56216)
updateCurrDst(56485)
updateCurrDst(56486)
updateCurrDst(57019)
updateCurrDst(57098)
updateCurrDst(57112)
Heartbeat CPU 0 instructions: 30000001 cycles: 44598732 heartbeat IPC: 0.331777 cumulative IPC: 0.332165 (Simulation time: 0 hr 1 min 32 sec) 
updateCurrDst(57401)
updateCurrDst(57456)
updateCurrDst(57489)
updateCurrDst(57494)
updateCurrDst(57505)
updateCurrDst(57668)
updateCurrDst(57744)
updateCurrDst(57781)
updateCurrDst(57871)
updateCurrDst(57875)
updateCurrDst(57941)
updateCurrDst(57943)
updateCurrDst(58203)
updateCurrDst(58332)
updateCurrDst(58417)
updateCurrDst(58435)
updateCurrDst(58719)
updateCurrDst(58975)
updateCurrDst(59056)
updateCurrDst(59128)
updateCurrDst(59149)
Heartbeat CPU 0 instructions: 31000000 cycles: 47612770 heartbeat IPC: 0.33178 cumulative IPC: 0.332137 (Simulation time: 0 hr 1 min 35 sec) 
updateCurrDst(59509)
updateCurrDst(59589)
updateCurrDst(59678)
updateCurrDst(59692)
updateCurrDst(59959)
updateCurrDst(60087)
updateCurrDst(60172)
updateCurrDst(60250)
updateCurrDst(60610)
updateCurrDst(60811)
updateCurrDst(60816)
updateCurrDst(60824)
updateCurrDst(60878)
updateCurrDst(60913)
Heartbeat CPU 0 instructions: 32000000 cycles: 50641933 heartbeat IPC: 0.330124 cumulative IPC: 0.332002 (Simulation time: 0 hr 1 min 39 sec) 
updateCurrDst(61503)
updateCurrDst(61512)
updateCurrDst(61586)
updateCurrDst(61650)
updateCurrDst(61684)
updateCurrDst(61743)
updateCurrDst(61903)
updateCurrDst(62018)
updateCurrDst(62167)
updateCurrDst(62398)
updateCurrDst(62489)
updateCurrDst(62655)
updateCurrDst(62677)
updateCurrDst(62687)
updateCurrDst(63000)
updateCurrDst(63117)
updateCurrDst(63238)
updateCurrDst(63263)
updateCurrDst(63311)
updateCurrDst(63421)
Heartbeat CPU 0 instructions: 33000000 cycles: 53661320 heartbeat IPC: 0.331193 cumulative IPC: 0.331952 (Simulation time: 0 hr 1 min 42 sec) 
updateCurrDst(63537)
updateCurrDst(63641)
updateCurrDst(63684)
updateCurrDst(63775)
updateCurrDst(63865)
updateCurrDst(63882)
updateCurrDst(63887)
updateCurrDst(63894)
updateCurrDst(63904)
updateCurrDst(64210)
updateCurrDst(64334)
updateCurrDst(64335)
updateCurrDst(64336)
updateCurrDst(64592)
updateCurrDst(64840)
updateCurrDst(64932)
updateCurrDst(65221)
updateCurrDst(65225)
updateCurrDst(65523)
updateCurrDst(65527)
*** Reached end of trace for Core: 0 Repeating trace: ./tracer/pull_u16_k3.xzafter: 33978770
Heartbeat CPU 0 instructions: 34000002 cycles: 56752389 heartbeat IPC: 0.323513 cumulative IPC: 0.331443 (Simulation time: 0 hr 1 min 45 sec) 
Finished CPU 0 instructions: 17000003 cycles: 51290845 cumulative IPC: 0.331443 (Simulation time: 0 hr 1 min 45 sec) 

ChampSim completed all CPUs

Region of Interest Statistics

CPU 0 cumulative IPC: 0.331443 instructions: 17000003 cycles: 51290845

Total ROB STALLS:                    6758384
STLB MISS ROB STALLS:                    221
L1D  LOAD MISS ROB STALLS:            196177  Translation MISS ROB STALLS:             0
L2C  LOAD MISS ROB STALLS:             20149  Translation MISS ROB STALLS:             0
LLC  LOAD MISS ROB STALLS:             18069  Translation MISS ROB STALLS:             0

ITLB TOTAL     ACCESS:           2302916  HIT:    2302887  MISS:         29  HIT %:    99.9987  MISS %: 0.00125927   MPKI: 0.00170588
ITLB LOAD TRANSLATION ACCESS:    2302916  HIT:    2302887  MISS:         29  HIT %:    99.9987  MISS %: 0.00125927   MPKI: 0.00170588
ITLB AVERAGE MISS LATENCY:       206.379 cycles
ITLB RQ ACCESS:     2513473	FORWARD:           0	MERGED:       210557	TO_CACHE:    2302916

DTLB TOTAL     ACCESS:           5009793  HIT:    4991666  MISS:      18127  HIT %:    99.6382  MISS %:   0.361831   MPKI: 1.06629
DTLB LOAD TRANSLATION ACCESS:    5009793  HIT:    4991666  MISS:      18127  HIT %:    99.6382  MISS %:   0.361831   MPKI: 1.06629
DTLB AVERAGE MISS LATENCY:       12.0851 cycles
DTLB RQ ACCESS:     6888230	FORWARD:           0	MERGED:      1878435	TO_CACHE:    5009795

STLB TOTAL     ACCESS:             18156  HIT:      17908  MISS:        248  HIT %:    98.6341  MISS %:    1.36594   MPKI: 0.0145882
STLB LOAD TRANSLATION ACCESS:      18156  HIT:      17908  MISS:        248  HIT %:    98.6341  MISS %:    1.36594   MPKI: 0.0145882
STLB AVERAGE MISS LATENCY:       248.581 cycles
STLB RQ ACCESS:       18156	FORWARD:           0	MERGED:            0	TO_CACHE:      18156

PSCL5 TOTAL     ACCESS:               248  HIT:        248  MISS:          0  HIT %:        100  MISS %:          0   MPKI: 0
PSCL5 LOAD TRANSLATION ACCESS:        248  HIT:        248  MISS:          0  HIT %:        100  MISS %:          0   MPKI: 0

PSCL4 TOTAL     ACCESS:               248  HIT:        248  MISS:          0  HIT %:        100  MISS %:          0   MPKI: 0
PSCL4 LOAD TRANSLATION ACCESS:        248  HIT:        248  MISS:          0  HIT %:        100  MISS %:          0   MPKI: 0

PSCL3 TOTAL     ACCESS:               248  HIT:        248  MISS:          0  HIT %:        100  MISS %:          0   MPKI: 0
PSCL3 LOAD TRANSLATION ACCESS:        248  HIT:        248  MISS:          0  HIT %:        100  MISS %:          0   MPKI: 0

PSCL2 TOTAL     ACCESS:               248  HIT:        248  MISS:          0  HIT %:        100  MISS %:          0   MPKI: 0
PSCL2 LOAD TRANSLATION ACCESS:        248  HIT:        248  MISS:          0  HIT %:        100  MISS %:          0   MPKI: 0

L1D TOTAL     ACCESS:           6888138  HIT:    6691808  MISS:     196330  HIT %:    97.1497  MISS %:    2.85026   MPKI: 11.5488  USED:      49678  UNUSED:     146652
L1D LOAD      ACCESS:           2970683  HIT:    2774457  MISS:     196226  HIT %:    93.3946  MISS %:    6.60542   MPKI: 11.5427  USED:      49678  UNUSED:     146652
L1D RFO       ACCESS:           3917455  HIT:    3917351  MISS:        104  HIT %:    99.9973  MISS %: 0.00265478   MPKI: 0.00611765
L1D PTL1 TRANSLATION ACCESS:          0  HIT:          0  MISS:          0  HIT %:       -nan  MISS %:       -nan   MPKI: 0
L1D PTL2 TRANSLATION ACCESS:          0  HIT:          0  MISS:          0  HIT %:       -nan  MISS %:       -nan   MPKI: 0
L1D PTL3 TRANSLATION ACCESS:          0  HIT:          0  MISS:          0  HIT %:       -nan  MISS %:       -nan   MPKI: 0
L1D PTL4 TRANSLATION ACCESS:          0  HIT:          0  MISS:          0  HIT %:       -nan  MISS %:       -nan   MPKI: 0
L1D PTL5 TRANSLATION ACCESS:          0  HIT:          0  MISS:          0  HIT %:       -nan  MISS %:       -nan   MPKI: 0
L1D TOTAL EVICTIONS:             196330  TRANSLATION EVICTIONS:          0  TRANSLATION EVICTING TRANSALTION:          0  TRANSLATION EVICTING LOAD:          0  LOAD EVICTING TRANSALTION:          0  LOAD EVICTING LOAD:      196226
L1D AVERAGE MISS LATENCY:       30.4944 cycles  AVERAGE LOAD MISS LATENCY:       30.4665 cycles  AVERAGE LOAD TRANSLATION MISS LATENCY:          -nan cycles
L1D RQ ACCESS:     4318100	FORWARD:           0	MERGED:       922533	TO_CACHE:    2970714
L1D WQ ACCESS:     3921212	FORWARD:      424853	MERGED:         3696	TO_CACHE:    3917516

L1I TOTAL     ACCESS:           2513468  HIT:    2513325  MISS:        143  HIT %:    99.9943  MISS %: 0.00568935   MPKI: 0.00841176
L1I LOAD      ACCESS:           2513468  HIT:    2513325  MISS:        143  HIT %:    99.9943  MISS %: 0.00568935   MPKI: 0.00841176
L1I AVERAGE MISS LATENCY:       196.832 cycles
L1I RQ ACCESS:     3970324	FORWARD:           0	MERGED:      1456851	TO_CACHE:    2513473

L2C TOTAL     ACCESS:            198682  HIT:     178238  MISS:      20444  HIT %:    89.7102  MISS %:    10.2898   MPKI: 1.20259  USED:         48  UNUSED:      20396
L2C LOAD      ACCESS:            196368  HIT:     176028  MISS:      20340  HIT %:    89.6419  MISS %:    10.3581   MPKI: 1.19647  USED:         22  UNUSED:      20396
L2C RFO       ACCESS:               104  HIT:          0  MISS:        104  HIT %:          0  MISS %:        100   MPKI: 0.00611765
L2C WRITEBACK ACCESS:              2210  HIT:       2210  MISS:          0  HIT %:        100  MISS %:          0   MPKI: 0
L2C PTL1 TRANSLATION ACCESS:          0  HIT:          0  MISS:          0  HIT %:       -nan  MISS %:       -nan   MPKI: 0
L2C PTL2 TRANSLATION ACCESS:          0  HIT:          0  MISS:          0  HIT %:       -nan  MISS %:       -nan   MPKI: 0
L2C PTL3 TRANSLATION ACCESS:          0  HIT:          0  MISS:          0  HIT %:       -nan  MISS %:       -nan   MPKI: 0
L2C PTL4 TRANSLATION ACCESS:          0  HIT:          0  MISS:          0  HIT %:       -nan  MISS %:       -nan   MPKI: 0
L2C PTL5 TRANSLATION ACCESS:          0  HIT:          0  MISS:          0  HIT %:       -nan  MISS %:       -nan   MPKI: 0
L2C TOTAL EVICTIONS:              20444  TRANSLATION EVICTIONS:          0  TRANSLATION EVICTING TRANSALTION:          0  TRANSLATION EVICTING LOAD:          0  LOAD EVICTING TRANSALTION:          0  LOAD EVICTING LOAD:       20316
L2C AVERAGE MISS LATENCY:       150.071 cycles  AVERAGE LOAD MISS LATENCY:        150.49 cycles  AVERAGE LOAD TRANSLATION MISS LATENCY:          -nan cycles
L2C RQ ACCESS:      196472	FORWARD:           0	MERGED:            0	TO_CACHE:     196472
L2C WQ ACCESS:        2210	FORWARD:           0	MERGED:            0	TO_CACHE:       2210

LLC TOTAL     ACCESS:             22715  HIT:       4409  MISS:      18306  HIT %:    19.4101  MISS %:    80.5899   MPKI: 1.07682  USED:       1271  UNUSED:      16624
LLC LOAD      ACCESS:             20340  HIT:       2078  MISS:      18262  HIT %:    10.2163  MISS %:    89.7837   MPKI: 1.07424  USED:          3  UNUSED:       9890
LLC RFO       ACCESS:               104  HIT:         79  MISS:         25  HIT %:    75.9615  MISS %:    24.0385   MPKI: 0.00147059
LLC WRITEBACK ACCESS:              2271  HIT:       2252  MISS:         19  HIT %:    99.1634  MISS %:   0.836636   MPKI: 0.00111765
LLC PTL1 TRANSLATION ACCESS:          0  HIT:          0  MISS:          0  HIT %:       -nan  MISS %:       -nan   MPKI: 0
LLC PTL2 TRANSLATION ACCESS:          0  HIT:          0  MISS:          0  HIT %:       -nan  MISS %:       -nan   MPKI: 0
LLC PTL3 TRANSLATION ACCESS:          0  HIT:          0  MISS:          0  HIT %:       -nan  MISS %:       -nan   MPKI: 0
LLC PTL4 TRANSLATION ACCESS:          0  HIT:          0  MISS:          0  HIT %:       -nan  MISS %:       -nan   MPKI: 0
LLC PTL5 TRANSLATION ACCESS:          0  HIT:          0  MISS:          0  HIT %:       -nan  MISS %:       -nan   MPKI: 0
LLC TOTAL EVICTIONS:              17895  TRANSLATION EVICTIONS:          0  TRANSLATION EVICTING TRANSALTION:          0  TRANSLATION EVICTING LOAD:          0  LOAD EVICTING TRANSALTION:          0  LOAD EVICTING LOAD:        9859
LLC AVERAGE MISS LATENCY:       134.072 cycles  AVERAGE LOAD MISS LATENCY:       134.178 cycles  AVERAGE LOAD TRANSLATION MISS LATENCY:          -nan cycles
LLC RQ ACCESS:       20444	FORWARD:           0	MERGED:            0	TO_CACHE:      20444
LLC WQ ACCESS:        2271	FORWARD:           0	MERGED:            0	TO_CACHE:       2271


RAW hits: 2890873
Loads Generated: 7208973
Loads sent to L1D: 4318100
Stores Generated: 3921211
Stores sent to L1D: 3921212
Major fault: 0 Minor fault: 893
Allocated PAGES: 893
IRREG DATA L1D ACCESS: 393192
L2C ACCESSES: 327114
L2C MISSES: 1185

DRAM Statistics
 CHANNEL 0
 RQ ROW_BUFFER_HIT:       6565  ROW_BUFFER_MISS:      11970
 DBUS_CONGESTED:          0
 WQ ROW_BUFFER_HIT:         53  ROW_BUFFER_MISS:       5306  FULL:          0

 AVG_CONGESTED_CYCLE: -

CPU 0 Branch Prediction Accuracy: 98.3026% MPKI: 2.08271 Average ROB Occupancy at Mispredict: 16.135
Branch types
NOT_BRANCH: 14914166 87.7304%
BRANCH_DIRECT_JUMP: 0 0%
BRANCH_INDIRECT: 247803 1.45766%
BRANCH_CONDITIONAL: 0 0%
BRANCH_DIRECT_CALL: 35269 0.207465%
BRANCH_INDIRECT_CALL: 706414 4.15538%
BRANCH_RETURN: 741683 4.36284%
BRANCH_OTHER: 354672 2.08631%

DRAM PAGES: 1048576
Allocated PAGES: 893
