
*** ChampSim Multicore Out-of-Order Simulator ***

Warmup Instructions: 17000000
Simulation Instructions: 17000000
Number of CPUs: 1
LLC sets: 2048
LLC ways: 16
Off-chip DRAM Size: 4096 MB Channels: 1 Width: 64-bit Data Rate: 6400 MT/s
CPU 0 runs ./tracer/pull_u16_k3.xz
.xz
BTB has LRU replacement policy
ITLB has LRU replacement policy
DTLB has LRU replacement policy
STLB has LRU replacement policy
L1I has LRU replacement policy
L1D has LRU replacement policy
L2C has LRU replacement policy
Initialize DRRIP state for LLC
Heartbeat CPU 0 instructions: 1000000 cycles: 350520 heartbeat IPC: 2.8529 cumulative IPC: 2.8529 (Simulation time: 0 hr 0 min 2 sec) 
PIN_registerGraphs(random_u16_k3.sg,1)
Graphh Number of Nodes: 65536
Heartbeat CPU 0 instructions: 2000000 cycles: 690866 heartbeat IPC: 2.93819 cumulative IPC: 2.89492 (Simulation time: 0 hr 0 min 4 sec) 
PIN_updateRegBaseBound( 94614838350032, 94614838612176)
updateCurrDst(42)
updateCurrDst(130)
updateCurrDst(409)
updateCurrDst(421)
updateCurrDst(445)
updateCurrDst(477)
updateCurrDst(544)
updateCurrDst(553)
updateCurrDst(651)
updateCurrDst(785)
updateCurrDst(790)
updateCurrDst(870)
updateCurrDst(977)
updateCurrDst(1014)
Heartbeat CPU 0 instructions: 3000001 cycles: 1015874 heartbeat IPC: 3.07685 cumulative IPC: 2.95312 (Simulation time: 0 hr 0 min 6 sec) 
updateCurrDst(1151)
updateCurrDst(1192)
updateCurrDst(1265)
updateCurrDst(1285)
updateCurrDst(1439)
updateCurrDst(1494)
updateCurrDst(1518)
updateCurrDst(1795)
updateCurrDst(1834)
updateCurrDst(1974)
updateCurrDst(1978)
updateCurrDst(2006)
updateCurrDst(2050)
updateCurrDst(2176)
updateCurrDst(2189)
updateCurrDst(2261)
updateCurrDst(2266)
updateCurrDst(2489)
updateCurrDst(2537)
updateCurrDst(2553)
updateCurrDst(2576)
updateCurrDst(2612)
updateCurrDst(2679)
updateCurrDst(2698)
updateCurrDst(2803)
updateCurrDst(2831)
updateCurrDst(2841)
updateCurrDst(2847)
updateCurrDst(2868)
updateCurrDst(2888)
updateCurrDst(2998)
updateCurrDst(3007)
updateCurrDst(3095)
updateCurrDst(3171)
Heartbeat CPU 0 instructions: 4000001 cycles: 1333490 heartbeat IPC: 3.14846 cumulative IPC: 2.99965 (Simulation time: 0 hr 0 min 9 sec) 
updateCurrDst(3242)
updateCurrDst(3377)
updateCurrDst(3386)
updateCurrDst(4012)
updateCurrDst(4061)
updateCurrDst(4078)
updateCurrDst(4100)
updateCurrDst(4212)
updateCurrDst(4402)
updateCurrDst(4579)
updateCurrDst(4775)
updateCurrDst(4962)
updateCurrDst(4972)
updateCurrDst(5099)
updateCurrDst(5139)
updateCurrDst(5253)
updateCurrDst(5287)
Heartbeat CPU 0 instructions: 5000000 cycles: 1650862 heartbeat IPC: 3.15087 cumulative IPC: 3.02872 (Simulation time: 0 hr 0 min 12 sec) 
updateCurrDst(5385)
updateCurrDst(5414)
updateCurrDst(5497)
updateCurrDst(5500)
updateCurrDst(5648)
updateCurrDst(5719)
updateCurrDst(5988)
updateCurrDst(5999)
updateCurrDst(6099)
updateCurrDst(6129)
updateCurrDst(6358)
updateCurrDst(6390)
updateCurrDst(6446)
updateCurrDst(6521)
updateCurrDst(6534)
updateCurrDst(6539)
updateCurrDst(6595)
updateCurrDst(6721)
updateCurrDst(6818)
updateCurrDst(6867)
updateCurrDst(6966)
updateCurrDst(7121)
updateCurrDst(7321)
updateCurrDst(7363)
Heartbeat CPU 0 instructions: 6000002 cycles: 1968545 heartbeat IPC: 3.1478 cumulative IPC: 3.04794 (Simulation time: 0 hr 0 min 15 sec) 
updateCurrDst(7638)
updateCurrDst(7725)
updateCurrDst(7935)
updateCurrDst(7954)
updateCurrDst(8245)
updateCurrDst(8268)
updateCurrDst(8517)
updateCurrDst(8521)
updateCurrDst(8559)
updateCurrDst(8571)
updateCurrDst(8625)
updateCurrDst(8807)
updateCurrDst(8941)
updateCurrDst(9207)
updateCurrDst(9282)
Heartbeat CPU 0 instructions: 7000001 cycles: 2285578 heartbeat IPC: 3.15424 cumulative IPC: 3.06268 (Simulation time: 0 hr 0 min 17 sec) 
updateCurrDst(9497)
updateCurrDst(9531)
updateCurrDst(9712)
updateCurrDst(9713)
updateCurrDst(9832)
updateCurrDst(10169)
updateCurrDst(10370)
updateCurrDst(10387)
updateCurrDst(10457)
updateCurrDst(10539)
updateCurrDst(10823)
updateCurrDst(10881)
updateCurrDst(10955)
updateCurrDst(11008)
updateCurrDst(11361)
Heartbeat CPU 0 instructions: 8000001 cycles: 2603164 heartbeat IPC: 3.14875 cumulative IPC: 3.07318 (Simulation time: 0 hr 0 min 20 sec) 
updateCurrDst(11589)
updateCurrDst(11657)
updateCurrDst(11737)
updateCurrDst(11822)
updateCurrDst(11842)
updateCurrDst(11923)
updateCurrDst(12332)
updateCurrDst(12387)
updateCurrDst(12453)
updateCurrDst(12472)
updateCurrDst(12598)
updateCurrDst(12632)
updateCurrDst(12861)
updateCurrDst(12990)
updateCurrDst(13018)
updateCurrDst(13036)
updateCurrDst(13113)
updateCurrDst(13228)
updateCurrDst(13324)
updateCurrDst(13413)
updateCurrDst(13442)
updateCurrDst(13464)
updateCurrDst(13479)
updateCurrDst(13512)
updateCurrDst(13527)
updateCurrDst(13581)
Heartbeat CPU 0 instructions: 9000001 cycles: 2921038 heartbeat IPC: 3.1459 cumulative IPC: 3.0811 (Simulation time: 0 hr 0 min 23 sec) 
updateCurrDst(13818)
updateCurrDst(13994)
updateCurrDst(14068)
updateCurrDst(14096)
updateCurrDst(14192)
updateCurrDst(14367)
updateCurrDst(14536)
updateCurrDst(14592)
updateCurrDst(14665)
updateCurrDst(14698)
updateCurrDst(14699)
updateCurrDst(14985)
updateCurrDst(15004)
updateCurrDst(15009)
updateCurrDst(15030)
updateCurrDst(15058)
updateCurrDst(15189)
updateCurrDst(15265)
updateCurrDst(15429)
updateCurrDst(15488)
updateCurrDst(15502)
updateCurrDst(15571)
updateCurrDst(15607)
updateCurrDst(15633)
Heartbeat CPU 0 instructions: 10000003 cycles: 3238531 heartbeat IPC: 3.14968 cumulative IPC: 3.08782 (Simulation time: 0 hr 0 min 26 sec) 
updateCurrDst(15810)
updateCurrDst(15934)
updateCurrDst(15964)
updateCurrDst(15990)
updateCurrDst(16021)
updateCurrDst(16116)
updateCurrDst(16145)
updateCurrDst(16153)
updateCurrDst(16301)
updateCurrDst(16395)
updateCurrDst(16523)
updateCurrDst(16719)
updateCurrDst(16948)
updateCurrDst(17218)
updateCurrDst(17270)
updateCurrDst(17313)
updateCurrDst(17380)
updateCurrDst(17475)
updateCurrDst(17638)
Heartbeat CPU 0 instructions: 11000000 cycles: 3555967 heartbeat IPC: 3.15023 cumulative IPC: 3.09339 (Simulation time: 0 hr 0 min 29 sec) 
updateCurrDst(17831)
updateCurrDst(17856)
updateCurrDst(17874)
updateCurrDst(17876)
updateCurrDst(17877)
updateCurrDst(17881)
updateCurrDst(17906)
updateCurrDst(18180)
updateCurrDst(18303)
updateCurrDst(18497)
updateCurrDst(18624)
updateCurrDst(18890)
updateCurrDst(18944)
updateCurrDst(18987)
updateCurrDst(18989)
updateCurrDst(19131)
updateCurrDst(19283)
updateCurrDst(19286)
updateCurrDst(19354)
updateCurrDst(19577)
updateCurrDst(19655)
updateCurrDst(19805)
Heartbeat CPU 0 instructions: 12000000 cycles: 3873393 heartbeat IPC: 3.15034 cumulative IPC: 3.09806 (Simulation time: 0 hr 0 min 32 sec) 
updateCurrDst(19852)
updateCurrDst(19896)
updateCurrDst(20131)
updateCurrDst(20154)
updateCurrDst(20187)
updateCurrDst(20471)
updateCurrDst(20499)
updateCurrDst(20521)
updateCurrDst(20647)
updateCurrDst(20715)
updateCurrDst(20849)
updateCurrDst(21068)
updateCurrDst(21241)
updateCurrDst(21840)
Heartbeat CPU 0 instructions: 13000002 cycles: 4191241 heartbeat IPC: 3.14616 cumulative IPC: 3.10171 (Simulation time: 0 hr 0 min 35 sec) 
updateCurrDst(21949)
updateCurrDst(22133)
updateCurrDst(22221)
updateCurrDst(22258)
updateCurrDst(22264)
updateCurrDst(22636)
updateCurrDst(22784)
updateCurrDst(22866)
updateCurrDst(22913)
updateCurrDst(22970)
updateCurrDst(23030)
updateCurrDst(23294)
updateCurrDst(23420)
updateCurrDst(23502)
updateCurrDst(23533)
updateCurrDst(23551)
updateCurrDst(23820)
updateCurrDst(23866)
Heartbeat CPU 0 instructions: 14000000 cycles: 4508882 heartbeat IPC: 3.1482 cumulative IPC: 3.10498 (Simulation time: 0 hr 0 min 37 sec) 
updateCurrDst(24140)
updateCurrDst(24144)
updateCurrDst(24156)
updateCurrDst(24292)
updateCurrDst(24338)
updateCurrDst(24380)
updateCurrDst(24708)
updateCurrDst(24723)
updateCurrDst(24772)
updateCurrDst(24822)
updateCurrDst(24841)
updateCurrDst(25186)
updateCurrDst(25305)
updateCurrDst(25387)
updateCurrDst(25469)
updateCurrDst(25586)
updateCurrDst(25627)
updateCurrDst(25628)
updateCurrDst(25758)
updateCurrDst(26065)
updateCurrDst(26084)
Heartbeat CPU 0 instructions: 15000000 cycles: 4826564 heartbeat IPC: 3.1478 cumulative IPC: 3.1078 (Simulation time: 0 hr 0 min 40 sec) 
updateCurrDst(26182)
updateCurrDst(26536)
updateCurrDst(26579)
updateCurrDst(26590)
updateCurrDst(26650)
updateCurrDst(26658)
updateCurrDst(27078)
updateCurrDst(27113)
updateCurrDst(27197)
updateCurrDst(27198)
updateCurrDst(27206)
updateCurrDst(27435)
updateCurrDst(27503)
updateCurrDst(27524)
updateCurrDst(27575)
updateCurrDst(27618)
updateCurrDst(27668)
updateCurrDst(27943)
updateCurrDst(27991)
updateCurrDst(27996)
updateCurrDst(28079)
updateCurrDst(28146)
Heartbeat CPU 0 instructions: 16000001 cycles: 5143879 heartbeat IPC: 3.15145 cumulative IPC: 3.11049 (Simulation time: 0 hr 0 min 43 sec) 
updateCurrDst(28184)
updateCurrDst(28203)
updateCurrDst(28281)
updateCurrDst(28698)
updateCurrDst(28822)
updateCurrDst(28831)
updateCurrDst(28836)
updateCurrDst(29184)
updateCurrDst(29228)
updateCurrDst(29335)
updateCurrDst(29346)
updateCurrDst(29622)
updateCurrDst(29687)
updateCurrDst(29852)
updateCurrDst(29896)
updateCurrDst(30081)
Heartbeat CPU 0 instructions: 17000000 cycles: 5461562 heartbeat IPC: 3.14779 cumulative IPC: 3.11266 (Simulation time: 0 hr 0 min 46 sec) 

Warmup complete CPU 0 instructions: 17000004 cycles: 5461563 (Simulation time: 0 hr 0 min 46 sec) 

updateCurrDst(30290)
updateCurrDst(30380)
updateCurrDst(30389)
updateCurrDst(30457)
updateCurrDst(30706)
updateCurrDst(30815)
updateCurrDst(30873)
updateCurrDst(30928)
updateCurrDst(30959)
updateCurrDst(30987)
updateCurrDst(31045)
updateCurrDst(31098)
updateCurrDst(31280)
updateCurrDst(31282)
updateCurrDst(31352)
updateCurrDst(31401)
updateCurrDst(31444)
updateCurrDst(31487)
updateCurrDst(31698)
updateCurrDst(31705)
updateCurrDst(31925)
updateCurrDst(32082)
updateCurrDst(32150)
updateCurrDst(32264)
updateCurrDst(32294)
Heartbeat CPU 0 instructions: 18000000 cycles: 8465057 heartbeat IPC: 0.332945 cumulative IPC: 0.332944 (Simulation time: 0 hr 0 min 50 sec) 
updateCurrDst(32465)
updateCurrDst(32519)
updateCurrDst(32587)
updateCurrDst(32638)
updateCurrDst(32701)
updateCurrDst(32733)
updateCurrDst(33080)
updateCurrDst(33238)
updateCurrDst(33343)
updateCurrDst(33348)
updateCurrDst(33543)
updateCurrDst(33593)
updateCurrDst(33743)
updateCurrDst(33758)
updateCurrDst(33950)
updateCurrDst(33951)
updateCurrDst(34167)
updateCurrDst(34201)
Heartbeat CPU 0 instructions: 19000003 cycles: 11453340 heartbeat IPC: 0.334641 cumulative IPC: 0.333791 (Simulation time: 0 hr 0 min 53 sec) 
updateCurrDst(34435)
updateCurrDst(34530)
updateCurrDst(34642)
updateCurrDst(34765)
updateCurrDst(34875)
updateCurrDst(35055)
updateCurrDst(35341)
updateCurrDst(35385)
updateCurrDst(35426)
updateCurrDst(35531)
updateCurrDst(35541)
updateCurrDst(35674)
updateCurrDst(35818)
updateCurrDst(35844)
updateCurrDst(35903)
updateCurrDst(35958)
updateCurrDst(35990)
updateCurrDst(35996)
updateCurrDst(36046)
updateCurrDst(36172)
updateCurrDst(36221)
updateCurrDst(36227)
updateCurrDst(36315)
updateCurrDst(36360)
Heartbeat CPU 0 instructions: 20000002 cycles: 14459422 heartbeat IPC: 0.332659 cumulative IPC: 0.333412 (Simulation time: 0 hr 0 min 56 sec) 
updateCurrDst(36553)
updateCurrDst(36574)
updateCurrDst(36596)
updateCurrDst(36666)
updateCurrDst(37074)
updateCurrDst(37476)
updateCurrDst(37662)
updateCurrDst(37747)
updateCurrDst(37830)
updateCurrDst(37969)
updateCurrDst(37989)
updateCurrDst(38015)
updateCurrDst(38140)
updateCurrDst(38202)
updateCurrDst(38277)
updateCurrDst(38404)
updateCurrDst(38435)
updateCurrDst(38515)
Heartbeat CPU 0 instructions: 21000001 cycles: 17466422 heartbeat IPC: 0.332557 cumulative IPC: 0.333198 (Simulation time: 0 hr 0 min 59 sec) 
updateCurrDst(38645)
updateCurrDst(38659)
updateCurrDst(38771)
updateCurrDst(38931)
updateCurrDst(39082)
updateCurrDst(39534)
updateCurrDst(39674)
updateCurrDst(39713)
updateCurrDst(39751)
updateCurrDst(39801)
updateCurrDst(39827)
updateCurrDst(39936)
updateCurrDst(40035)
updateCurrDst(40067)
updateCurrDst(40127)
updateCurrDst(40165)
updateCurrDst(40420)
Heartbeat CPU 0 instructions: 22000000 cycles: 20487122 heartbeat IPC: 0.331049 cumulative IPC: 0.332766 (Simulation time: 0 hr 1 min 3 sec) 
updateCurrDst(40787)
updateCurrDst(40812)
updateCurrDst(40843)
updateCurrDst(40941)
updateCurrDst(40974)
updateCurrDst(40990)
updateCurrDst(41031)
updateCurrDst(41032)
updateCurrDst(41036)
updateCurrDst(41043)
updateCurrDst(41070)
updateCurrDst(41113)
updateCurrDst(41172)
updateCurrDst(41174)
updateCurrDst(41345)
updateCurrDst(41591)
updateCurrDst(41600)
updateCurrDst(41620)
updateCurrDst(41766)
updateCurrDst(41873)
updateCurrDst(41881)
updateCurrDst(41893)
updateCurrDst(41928)
updateCurrDst(42010)
updateCurrDst(42026)
updateCurrDst(42315)
updateCurrDst(42338)
updateCurrDst(42349)
updateCurrDst(42358)
updateCurrDst(42513)
updateCurrDst(42543)
updateCurrDst(42606)
updateCurrDst(42676)
Heartbeat CPU 0 instructions: 23000000 cycles: 23506000 heartbeat IPC: 0.331249 cumulative IPC: 0.332512 (Simulation time: 0 hr 1 min 6 sec) 
updateCurrDst(42737)
updateCurrDst(42938)
updateCurrDst(42970)
updateCurrDst(43078)
updateCurrDst(43101)
updateCurrDst(43124)
updateCurrDst(43418)
updateCurrDst(43489)
updateCurrDst(43552)
updateCurrDst(43614)
updateCurrDst(43919)
updateCurrDst(43931)
updateCurrDst(44333)
updateCurrDst(44433)
updateCurrDst(44469)
updateCurrDst(44534)
updateCurrDst(44681)
updateCurrDst(44739)
updateCurrDst(44754)
updateCurrDst(44775)
Heartbeat CPU 0 instructions: 24000001 cycles: 26515219 heartbeat IPC: 0.332312 cumulative IPC: 0.332484 (Simulation time: 0 hr 1 min 9 sec) 
updateCurrDst(44859)
updateCurrDst(44903)
updateCurrDst(44923)
updateCurrDst(45079)
updateCurrDst(45091)
updateCurrDst(45238)
updateCurrDst(45256)
updateCurrDst(45286)
updateCurrDst(45387)
updateCurrDst(45446)
updateCurrDst(45516)
updateCurrDst(45649)
updateCurrDst(45730)
updateCurrDst(45764)
updateCurrDst(46083)
updateCurrDst(46264)
updateCurrDst(46407)
updateCurrDst(46421)
updateCurrDst(46497)
updateCurrDst(46585)
updateCurrDst(46610)
updateCurrDst(46637)
updateCurrDst(46677)
updateCurrDst(46778)
Heartbeat CPU 0 instructions: 25000002 cycles: 29516358 heartbeat IPC: 0.333207 cumulative IPC: 0.332574 (Simulation time: 0 hr 1 min 13 sec) 
updateCurrDst(46955)
updateCurrDst(47136)
updateCurrDst(47207)
updateCurrDst(47424)
updateCurrDst(47774)
updateCurrDst(47775)
updateCurrDst(47777)
updateCurrDst(48128)
updateCurrDst(48149)
updateCurrDst(48203)
updateCurrDst(48362)
updateCurrDst(48470)
updateCurrDst(48628)
updateCurrDst(48791)
updateCurrDst(48925)
updateCurrDst(48938)
updateCurrDst(48947)
Heartbeat CPU 0 instructions: 26000000 cycles: 32524342 heartbeat IPC: 0.332448 cumulative IPC: 0.33256 (Simulation time: 0 hr 1 min 16 sec) 
updateCurrDst(49264)
updateCurrDst(49279)
updateCurrDst(49359)
updateCurrDst(49616)
updateCurrDst(49667)
updateCurrDst(49715)
updateCurrDst(49723)
updateCurrDst(49906)
updateCurrDst(50091)
updateCurrDst(50108)
updateCurrDst(50144)
updateCurrDst(50190)
updateCurrDst(50197)
updateCurrDst(50311)
updateCurrDst(50410)
updateCurrDst(50557)
updateCurrDst(50757)
updateCurrDst(50879)
updateCurrDst(50982)
Heartbeat CPU 0 instructions: 27000000 cycles: 35535413 heartbeat IPC: 0.332108 cumulative IPC: 0.332515 (Simulation time: 0 hr 1 min 19 sec) 
updateCurrDst(51157)
updateCurrDst(51441)
updateCurrDst(51506)
updateCurrDst(51628)
updateCurrDst(51653)
updateCurrDst(51781)
updateCurrDst(51793)
updateCurrDst(51813)
updateCurrDst(51932)
updateCurrDst(51939)
updateCurrDst(52114)
updateCurrDst(52240)
updateCurrDst(52369)
updateCurrDst(52406)
updateCurrDst(52526)
updateCurrDst(52623)
updateCurrDst(52731)
updateCurrDst(52796)
updateCurrDst(52846)
updateCurrDst(52865)
updateCurrDst(52925)
updateCurrDst(52939)
Heartbeat CPU 0 instructions: 28000000 cycles: 38558322 heartbeat IPC: 0.330807 cumulative IPC: 0.332359 (Simulation time: 0 hr 1 min 22 sec) 
updateCurrDst(53194)
updateCurrDst(53277)
updateCurrDst(53405)
updateCurrDst(53413)
updateCurrDst(53594)
updateCurrDst(53686)
updateCurrDst(53713)
updateCurrDst(53832)
updateCurrDst(53936)
updateCurrDst(53979)
updateCurrDst(54150)
updateCurrDst(54196)
updateCurrDst(54228)
updateCurrDst(54269)
updateCurrDst(54397)
updateCurrDst(54402)
updateCurrDst(54772)
updateCurrDst(54778)
updateCurrDst(54780)
updateCurrDst(54793)
updateCurrDst(54997)
updateCurrDst(55160)
Heartbeat CPU 0 instructions: 29000000 cycles: 41566745 heartbeat IPC: 0.3324 cumulative IPC: 0.332362 (Simulation time: 0 hr 1 min 25 sec) 
updateCurrDst(55537)
updateCurrDst(55612)
updateCurrDst(55709)
updateCurrDst(55742)
updateCurrDst(56112)
updateCurrDst(56114)
updateCurrDst(56203)
updateCurrDst(56246)
updateCurrDst(56291)
updateCurrDst(56598)
updateCurrDst(56651)
updateCurrDst(56712)
updateCurrDst(56721)
updateCurrDst(57041)
updateCurrDst(57098)
updateCurrDst(57199)
updateCurrDst(57257)
Heartbeat CPU 0 instructions: 30000001 cycles: 44580871 heartbeat IPC: 0.331771 cumulative IPC: 0.332317 (Simulation time: 0 hr 1 min 29 sec) 
updateCurrDst(57444)
updateCurrDst(57499)
updateCurrDst(57631)
updateCurrDst(57733)
updateCurrDst(57745)
updateCurrDst(57884)
updateCurrDst(57999)
updateCurrDst(58017)
updateCurrDst(58031)
updateCurrDst(58273)
updateCurrDst(58280)
updateCurrDst(58355)
updateCurrDst(58473)
updateCurrDst(58515)
updateCurrDst(58550)
updateCurrDst(58711)
updateCurrDst(58750)
updateCurrDst(58869)
updateCurrDst(58920)
updateCurrDst(58928)
updateCurrDst(58982)
updateCurrDst(59085)
updateCurrDst(59215)
Heartbeat CPU 0 instructions: 31000000 cycles: 47595016 heartbeat IPC: 0.331769 cumulative IPC: 0.332277 (Simulation time: 0 hr 1 min 32 sec) 
updateCurrDst(59437)
updateCurrDst(59491)
updateCurrDst(59643)
updateCurrDst(59655)
updateCurrDst(59847)
updateCurrDst(60044)
updateCurrDst(60428)
updateCurrDst(60532)
updateCurrDst(61078)
updateCurrDst(61145)
updateCurrDst(61224)
updateCurrDst(61339)
updateCurrDst(61427)
Heartbeat CPU 0 instructions: 32000000 cycles: 50610906 heartbeat IPC: 0.331577 cumulative IPC: 0.332231 (Simulation time: 0 hr 1 min 35 sec) 
updateCurrDst(61437)
updateCurrDst(61562)
updateCurrDst(61684)
updateCurrDst(61798)
updateCurrDst(61818)
updateCurrDst(61928)
updateCurrDst(61942)
updateCurrDst(62095)
updateCurrDst(62128)
updateCurrDst(62218)
updateCurrDst(62316)
updateCurrDst(62376)
updateCurrDst(62400)
updateCurrDst(62586)
updateCurrDst(63048)
updateCurrDst(63137)
updateCurrDst(63283)
updateCurrDst(63321)
updateCurrDst(63349)
updateCurrDst(63375)
updateCurrDst(63464)
updateCurrDst(63493)
Heartbeat CPU 0 instructions: 33000000 cycles: 53625386 heartbeat IPC: 0.331732 cumulative IPC: 0.332199 (Simulation time: 0 hr 1 min 39 sec) 
updateCurrDst(63575)
updateCurrDst(63679)
updateCurrDst(63793)
updateCurrDst(63861)
updateCurrDst(63879)
updateCurrDst(63980)
updateCurrDst(64040)
updateCurrDst(64074)
updateCurrDst(64145)
updateCurrDst(64204)
updateCurrDst(64429)
updateCurrDst(64449)
updateCurrDst(64657)
updateCurrDst(64664)
updateCurrDst(64936)
updateCurrDst(65159)
updateCurrDst(65306)
*** Reached end of trace for Core: 0 Repeating trace: ./tracer/pull_u16_k3.xzafter: 33978770
Heartbeat CPU 0 instructions: 34000002 cycles: 56719388 heartbeat IPC: 0.323207 cumulative IPC: 0.331657 (Simulation time: 0 hr 1 min 42 sec) 
Finished CPU 0 instructions: 17000003 cycles: 51257844 cumulative IPC: 0.331657 (Simulation time: 0 hr 1 min 42 sec) 

ChampSim completed all CPUs

Region of Interest Statistics

CPU 0 cumulative IPC: 0.331657 instructions: 17000003 cycles: 51257844

Total ROB STALLS:                    6758609
STLB MISS ROB STALLS:                    221
L1D  LOAD MISS ROB STALLS:            196176  Translation MISS ROB STALLS:             0
L2C  LOAD MISS ROB STALLS:             20148  Translation MISS ROB STALLS:             0
LLC  LOAD MISS ROB STALLS:             17929  Translation MISS ROB STALLS:             0

ITLB TOTAL     ACCESS:           2302916  HIT:    2302887  MISS:         29  HIT %:    99.9987  MISS %: 0.00125927   MPKI: 0.00170588
ITLB LOAD TRANSLATION ACCESS:    2302916  HIT:    2302887  MISS:         29  HIT %:    99.9987  MISS %: 0.00125927   MPKI: 0.00170588
ITLB AVERAGE MISS LATENCY:       206.379 cycles
ITLB RQ ACCESS:     2513473	FORWARD:           0	MERGED:       210557	TO_CACHE:    2302916

DTLB TOTAL     ACCESS:           5009793  HIT:    4991666  MISS:      18127  HIT %:    99.6382  MISS %:   0.361831   MPKI: 1.06629
DTLB LOAD TRANSLATION ACCESS:    5009793  HIT:    4991666  MISS:      18127  HIT %:    99.6382  MISS %:   0.361831   MPKI: 1.06629
DTLB AVERAGE MISS LATENCY:       12.0851 cycles
DTLB RQ ACCESS:     6888273	FORWARD:           0	MERGED:      1878478	TO_CACHE:    5009795

STLB TOTAL     ACCESS:             18156  HIT:      17908  MISS:        248  HIT %:    98.6341  MISS %:    1.36594   MPKI: 0.0145882
STLB LOAD TRANSLATION ACCESS:      18156  HIT:      17908  MISS:        248  HIT %:    98.6341  MISS %:    1.36594   MPKI: 0.0145882
STLB AVERAGE MISS LATENCY:       248.581 cycles
STLB RQ ACCESS:       18156	FORWARD:           0	MERGED:            0	TO_CACHE:      18156

PSCL5 TOTAL     ACCESS:               248  HIT:        248  MISS:          0  HIT %:        100  MISS %:          0   MPKI: 0
PSCL5 LOAD TRANSLATION ACCESS:        248  HIT:        248  MISS:          0  HIT %:        100  MISS %:          0   MPKI: 0

PSCL4 TOTAL     ACCESS:               248  HIT:        248  MISS:          0  HIT %:        100  MISS %:          0   MPKI: 0
PSCL4 LOAD TRANSLATION ACCESS:        248  HIT:        248  MISS:          0  HIT %:        100  MISS %:          0   MPKI: 0

PSCL3 TOTAL     ACCESS:               248  HIT:        248  MISS:          0  HIT %:        100  MISS %:          0   MPKI: 0
PSCL3 LOAD TRANSLATION ACCESS:        248  HIT:        248  MISS:          0  HIT %:        100  MISS %:          0   MPKI: 0

PSCL2 TOTAL     ACCESS:               248  HIT:        248  MISS:          0  HIT %:        100  MISS %:          0   MPKI: 0
PSCL2 LOAD TRANSLATION ACCESS:        248  HIT:        248  MISS:          0  HIT %:        100  MISS %:          0   MPKI: 0

L1D TOTAL     ACCESS:           6888150  HIT:    6691820  MISS:     196330  HIT %:    97.1497  MISS %:    2.85026   MPKI: 11.5488  USED:      49678  UNUSED:     146652
L1D LOAD      ACCESS:           2970683  HIT:    2774457  MISS:     196226  HIT %:    93.3946  MISS %:    6.60542   MPKI: 11.5427  USED:      49678  UNUSED:     146652
L1D RFO       ACCESS:           3917467  HIT:    3917363  MISS:        104  HIT %:    99.9973  MISS %: 0.00265478   MPKI: 0.00611765
L1D PTL1 TRANSLATION ACCESS:          0  HIT:          0  MISS:          0  HIT %:       -nan  MISS %:       -nan   MPKI: 0
L1D PTL2 TRANSLATION ACCESS:          0  HIT:          0  MISS:          0  HIT %:       -nan  MISS %:       -nan   MPKI: 0
L1D PTL3 TRANSLATION ACCESS:          0  HIT:          0  MISS:          0  HIT %:       -nan  MISS %:       -nan   MPKI: 0
L1D PTL4 TRANSLATION ACCESS:          0  HIT:          0  MISS:          0  HIT %:       -nan  MISS %:       -nan   MPKI: 0
L1D PTL5 TRANSLATION ACCESS:          0  HIT:          0  MISS:          0  HIT %:       -nan  MISS %:       -nan   MPKI: 0
L1D TOTAL EVICTIONS:             196330  TRANSLATION EVICTIONS:          0  TRANSLATION EVICTING TRANSALTION:          0  TRANSLATION EVICTING LOAD:          0  LOAD EVICTING TRANSALTION:          0  LOAD EVICTING LOAD:      196226
L1D AVERAGE MISS LATENCY:       30.3352 cycles  AVERAGE LOAD MISS LATENCY:       30.2947 cycles  AVERAGE LOAD TRANSLATION MISS LATENCY:          -nan cycles
L1D RQ ACCESS:     4318100	FORWARD:           0	MERGED:       922533	TO_CACHE:    2970714
L1D WQ ACCESS:     3921212	FORWARD:      424853	MERGED:         3653	TO_CACHE:    3917559

L1I TOTAL     ACCESS:           2513468  HIT:    2513325  MISS:        143  HIT %:    99.9943  MISS %: 0.00568935   MPKI: 0.00841176
L1I LOAD      ACCESS:           2513468  HIT:    2513325  MISS:        143  HIT %:    99.9943  MISS %: 0.00568935   MPKI: 0.00841176
L1I AVERAGE MISS LATENCY:       193.336 cycles
L1I RQ ACCESS:     3970324	FORWARD:           0	MERGED:      1456851	TO_CACHE:    2513473

L2C TOTAL     ACCESS:            198682  HIT:     178238  MISS:      20444  HIT %:    89.7102  MISS %:    10.2898   MPKI: 1.20259  USED:         48  UNUSED:      20396
L2C LOAD      ACCESS:            196368  HIT:     176028  MISS:      20340  HIT %:    89.6419  MISS %:    10.3581   MPKI: 1.19647  USED:         22  UNUSED:      20396
L2C RFO       ACCESS:               104  HIT:          0  MISS:        104  HIT %:          0  MISS %:        100   MPKI: 0.00611765
L2C WRITEBACK ACCESS:              2210  HIT:       2210  MISS:          0  HIT %:        100  MISS %:          0   MPKI: 0
L2C PTL1 TRANSLATION ACCESS:          0  HIT:          0  MISS:          0  HIT %:       -nan  MISS %:       -nan   MPKI: 0
L2C PTL2 TRANSLATION ACCESS:          0  HIT:          0  MISS:          0  HIT %:       -nan  MISS %:       -nan   MPKI: 0
L2C PTL3 TRANSLATION ACCESS:          0  HIT:          0  MISS:          0  HIT %:       -nan  MISS %:       -nan   MPKI: 0
L2C PTL4 TRANSLATION ACCESS:          0  HIT:          0  MISS:          0  HIT %:       -nan  MISS %:       -nan   MPKI: 0
L2C PTL5 TRANSLATION ACCESS:          0  HIT:          0  MISS:          0  HIT %:       -nan  MISS %:       -nan   MPKI: 0
L2C TOTAL EVICTIONS:              20444  TRANSLATION EVICTIONS:          0  TRANSLATION EVICTING TRANSALTION:          0  TRANSLATION EVICTING LOAD:          0  LOAD EVICTING TRANSALTION:          0  LOAD EVICTING LOAD:       20316
L2C AVERAGE MISS LATENCY:       148.518 cycles  AVERAGE LOAD MISS LATENCY:       148.808 cycles  AVERAGE LOAD TRANSLATION MISS LATENCY:          -nan cycles
L2C RQ ACCESS:      196472	FORWARD:           0	MERGED:            0	TO_CACHE:     196472
L2C WQ ACCESS:        2210	FORWARD:           0	MERGED:            0	TO_CACHE:       2210

LLC TOTAL     ACCESS:             22715  HIT:       4527  MISS:      18188  HIT %:    19.9296  MISS %:    80.0704   MPKI: 1.06988  USED:          0  UNUSED:          0
LLC LOAD      ACCESS:             20340  HIT:       2217  MISS:      18123  HIT %:    10.8997  MISS %:    89.1003   MPKI: 1.06606  USED:          0  UNUSED:          0
LLC RFO       ACCESS:               104  HIT:         58  MISS:         46  HIT %:    55.7692  MISS %:    44.2308   MPKI: 0.00270588
LLC WRITEBACK ACCESS:              2271  HIT:       2252  MISS:         19  HIT %:    99.1634  MISS %:   0.836636   MPKI: 0.00111765
LLC PTL1 TRANSLATION ACCESS:          0  HIT:          0  MISS:          0  HIT %:       -nan  MISS %:       -nan   MPKI: 0
LLC PTL2 TRANSLATION ACCESS:          0  HIT:          0  MISS:          0  HIT %:       -nan  MISS %:       -nan   MPKI: 0
LLC PTL3 TRANSLATION ACCESS:          0  HIT:          0  MISS:          0  HIT %:       -nan  MISS %:       -nan   MPKI: 0
LLC PTL4 TRANSLATION ACCESS:          0  HIT:          0  MISS:          0  HIT %:       -nan  MISS %:       -nan   MPKI: 0
LLC PTL5 TRANSLATION ACCESS:          0  HIT:          0  MISS:          0  HIT %:       -nan  MISS %:       -nan   MPKI: 0
LLC TOTAL EVICTIONS:                  0  TRANSLATION EVICTIONS:          0  TRANSLATION EVICTING TRANSALTION:          0  TRANSLATION EVICTING LOAD:          0  LOAD EVICTING TRANSALTION:          0  LOAD EVICTING LOAD:           0
LLC AVERAGE MISS LATENCY:       133.201 cycles  AVERAGE LOAD MISS LATENCY:       133.324 cycles  AVERAGE LOAD TRANSLATION MISS LATENCY:          -nan cycles
LLC RQ ACCESS:       20444	FORWARD:           0	MERGED:            0	TO_CACHE:      20444
LLC WQ ACCESS:        2271	FORWARD:           0	MERGED:            0	TO_CACHE:       2271


RAW hits: 2890873
Loads Generated: 7208973
Loads sent to L1D: 4318100
Stores Generated: 3921211
Stores sent to L1D: 3921212
Major fault: 0 Minor fault: 893
Allocated PAGES: 893
IRREG DATA L1D ACCESS: 393192
L2C ACCESSES: 327114
L2C MISSES: 1185

DRAM Statistics
 CHANNEL 0
 RQ ROW_BUFFER_HIT:       6681  ROW_BUFFER_MISS:      11736
 DBUS_CONGESTED:          0
 WQ ROW_BUFFER_HIT:         38  ROW_BUFFER_MISS:       4958  FULL:          0

 AVG_CONGESTED_CYCLE: -

CPU 0 Branch Prediction Accuracy: 98.3026% MPKI: 2.08271 Average ROB Occupancy at Mispredict: 16.135
Branch types
NOT_BRANCH: 14914166 87.7304%
BRANCH_DIRECT_JUMP: 0 0%
BRANCH_INDIRECT: 247803 1.45766%
BRANCH_CONDITIONAL: 0 0%
BRANCH_DIRECT_CALL: 35269 0.207465%
BRANCH_INDIRECT_CALL: 706414 4.15538%
BRANCH_RETURN: 741683 4.36284%
BRANCH_OTHER: 354672 2.08631%

DRAM PAGES: 1048576
Allocated PAGES: 893
