
*** ChampSim Multicore Out-of-Order Simulator ***

Warmup Instructions: 47000000
Simulation Instructions: 47000000
Number of CPUs: 1
LLC sets: 2048
LLC ways: 16
Off-chip DRAM Size: 4096 MB Channels: 1 Width: 64-bit Data Rate: 6400 MT/s
CPU 0 runs ./tracer/pull_u17_k5.xz
.xz
BTB has LRU replacement policy
ITLB has LRU replacement policy
DTLB has LRU replacement policy
STLB has LRU replacement policy
L1I has LRU replacement policy
L1D has LRU replacement policy
L2C has LRU replacement policy
Initialize DRRIP state for LLC
Heartbeat CPU 0 instructions: 1000001 cycles: 346727 heartbeat IPC: 2.88412 cumulative IPC: 2.88412 (Simulation time: 0 hr 0 min 3 sec) 
Heartbeat CPU 0 instructions: 2000000 cycles: 693435 heartbeat IPC: 2.88427 cumulative IPC: 2.88419 (Simulation time: 0 hr 0 min 5 sec) 
Heartbeat CPU 0 instructions: 3000002 cycles: 1040145 heartbeat IPC: 2.88426 cumulative IPC: 2.88422 (Simulation time: 0 hr 0 min 8 sec) 
PIN_registerGraphs(random_u17_k5.sg,1)
Graphh Number of Nodes: 131072
Heartbeat CPU 0 instructions: 4000002 cycles: 1381287 heartbeat IPC: 2.93133 cumulative IPC: 2.89585 (Simulation time: 0 hr 0 min 10 sec) 
Heartbeat CPU 0 instructions: 5000001 cycles: 1714550 heartbeat IPC: 3.00063 cumulative IPC: 2.91622 (Simulation time: 0 hr 0 min 11 sec) 
PIN_updateRegBaseBound( 94585350295760, 94585350820048)
updateCurrDst(24)
updateCurrDst(30)
updateCurrDst(83)
updateCurrDst(151)
updateCurrDst(181)
updateCurrDst(211)
updateCurrDst(214)
updateCurrDst(223)
updateCurrDst(279)
updateCurrDst(293)
updateCurrDst(308)
updateCurrDst(486)
Heartbeat CPU 0 instructions: 6000002 cycles: 2041550 heartbeat IPC: 3.05811 cumulative IPC: 2.93894 (Simulation time: 0 hr 0 min 13 sec) 
updateCurrDst(551)
updateCurrDst(596)
updateCurrDst(621)
updateCurrDst(662)
updateCurrDst(689)
updateCurrDst(729)
updateCurrDst(780)
updateCurrDst(1067)
updateCurrDst(1195)
updateCurrDst(1333)
updateCurrDst(1473)
updateCurrDst(1483)
updateCurrDst(1531)
updateCurrDst(1656)
updateCurrDst(1695)
updateCurrDst(1700)
updateCurrDst(1770)
updateCurrDst(1781)
updateCurrDst(1879)
Heartbeat CPU 0 instructions: 7000002 cycles: 2355478 heartbeat IPC: 3.18544 cumulative IPC: 2.9718 (Simulation time: 0 hr 0 min 16 sec) 
updateCurrDst(2047)
updateCurrDst(2076)
updateCurrDst(2193)
updateCurrDst(2308)
updateCurrDst(2511)
updateCurrDst(2724)
updateCurrDst(2767)
updateCurrDst(2794)
updateCurrDst(2945)
updateCurrDst(3058)
updateCurrDst(3224)
updateCurrDst(3267)
updateCurrDst(3330)
updateCurrDst(3368)
updateCurrDst(3382)
Heartbeat CPU 0 instructions: 8000002 cycles: 2668913 heartbeat IPC: 3.19045 cumulative IPC: 2.99748 (Simulation time: 0 hr 0 min 19 sec) 
updateCurrDst(3569)
updateCurrDst(3632)
updateCurrDst(3837)
updateCurrDst(4048)
updateCurrDst(4051)
updateCurrDst(4057)
updateCurrDst(4100)
updateCurrDst(4106)
updateCurrDst(4244)
updateCurrDst(4275)
updateCurrDst(4516)
updateCurrDst(4591)
updateCurrDst(4644)
updateCurrDst(4757)
updateCurrDst(4801)
updateCurrDst(4856)
updateCurrDst(4876)
Heartbeat CPU 0 instructions: 9000002 cycles: 2982683 heartbeat IPC: 3.18705 cumulative IPC: 3.01742 (Simulation time: 0 hr 0 min 22 sec) 
updateCurrDst(5031)
updateCurrDst(5138)
updateCurrDst(5216)
updateCurrDst(5478)
updateCurrDst(5583)
updateCurrDst(5844)
updateCurrDst(5989)
updateCurrDst(6168)
updateCurrDst(6188)
updateCurrDst(6320)
updateCurrDst(6378)
updateCurrDst(6420)
Heartbeat CPU 0 instructions: 10000000 cycles: 3296470 heartbeat IPC: 3.18687 cumulative IPC: 3.03355 (Simulation time: 0 hr 0 min 25 sec) 
updateCurrDst(6488)
updateCurrDst(6496)
updateCurrDst(6499)
updateCurrDst(6758)
updateCurrDst(6875)
updateCurrDst(6924)
updateCurrDst(6961)
updateCurrDst(7071)
updateCurrDst(7294)
updateCurrDst(7338)
updateCurrDst(7370)
Heartbeat CPU 0 instructions: 11000000 cycles: 3610352 heartbeat IPC: 3.18591 cumulative IPC: 3.04679 (Simulation time: 0 hr 0 min 28 sec) 
updateCurrDst(7954)
updateCurrDst(8120)
updateCurrDst(8208)
updateCurrDst(8359)
updateCurrDst(8478)
updateCurrDst(8554)
updateCurrDst(8589)
updateCurrDst(8622)
updateCurrDst(8656)
updateCurrDst(8695)
updateCurrDst(8705)
updateCurrDst(8724)
updateCurrDst(8962)
updateCurrDst(9218)
updateCurrDst(9243)
Heartbeat CPU 0 instructions: 12000001 cycles: 3923978 heartbeat IPC: 3.18851 cumulative IPC: 3.05812 (Simulation time: 0 hr 0 min 31 sec) 
updateCurrDst(9463)
updateCurrDst(9478)
updateCurrDst(9539)
updateCurrDst(9670)
updateCurrDst(9704)
updateCurrDst(9891)
updateCurrDst(9907)
updateCurrDst(9983)
updateCurrDst(10149)
updateCurrDst(10324)
updateCurrDst(10429)
updateCurrDst(10593)
updateCurrDst(10723)
updateCurrDst(10737)
Heartbeat CPU 0 instructions: 13000002 cycles: 4237825 heartbeat IPC: 3.18627 cumulative IPC: 3.06761 (Simulation time: 0 hr 0 min 34 sec) 
updateCurrDst(10950)
updateCurrDst(10963)
updateCurrDst(10965)
updateCurrDst(11081)
updateCurrDst(11205)
updateCurrDst(11413)
updateCurrDst(11455)
updateCurrDst(11481)
updateCurrDst(11532)
updateCurrDst(11614)
updateCurrDst(11676)
updateCurrDst(11687)
updateCurrDst(11778)
updateCurrDst(11982)
updateCurrDst(12103)
updateCurrDst(12327)
Heartbeat CPU 0 instructions: 14000001 cycles: 4551403 heartbeat IPC: 3.189 cumulative IPC: 3.07597 (Simulation time: 0 hr 0 min 36 sec) 
updateCurrDst(12371)
updateCurrDst(12373)
updateCurrDst(12424)
updateCurrDst(12449)
updateCurrDst(12460)
updateCurrDst(12672)
updateCurrDst(12767)
updateCurrDst(12804)
updateCurrDst(12819)
updateCurrDst(12950)
updateCurrDst(12993)
updateCurrDst(13110)
updateCurrDst(13184)
updateCurrDst(13366)
updateCurrDst(13450)
updateCurrDst(13491)
updateCurrDst(13608)
updateCurrDst(13612)
updateCurrDst(13627)
updateCurrDst(13720)
updateCurrDst(13760)
Heartbeat CPU 0 instructions: 15000001 cycles: 4865176 heartbeat IPC: 3.18702 cumulative IPC: 3.08314 (Simulation time: 0 hr 0 min 39 sec) 
updateCurrDst(14039)
updateCurrDst(14281)
updateCurrDst(14412)
updateCurrDst(14501)
updateCurrDst(14575)
updateCurrDst(14846)
updateCurrDst(14945)
updateCurrDst(15117)
updateCurrDst(15129)
updateCurrDst(15230)
Heartbeat CPU 0 instructions: 16000003 cycles: 5178814 heartbeat IPC: 3.1884 cumulative IPC: 3.08951 (Simulation time: 0 hr 0 min 42 sec) 
updateCurrDst(15397)
updateCurrDst(15465)
updateCurrDst(16057)
updateCurrDst(16297)
updateCurrDst(16307)
updateCurrDst(16374)
updateCurrDst(16423)
updateCurrDst(16492)
updateCurrDst(16721)
Heartbeat CPU 0 instructions: 17000002 cycles: 5492380 heartbeat IPC: 3.18912 cumulative IPC: 3.0952 (Simulation time: 0 hr 0 min 45 sec) 
updateCurrDst(16833)
updateCurrDst(16989)
updateCurrDst(17174)
updateCurrDst(17197)
updateCurrDst(17351)
updateCurrDst(17489)
updateCurrDst(17524)
updateCurrDst(17538)
updateCurrDst(17563)
updateCurrDst(17567)
updateCurrDst(17879)
updateCurrDst(17924)
updateCurrDst(17929)
updateCurrDst(17987)
updateCurrDst(18089)
updateCurrDst(18263)
Heartbeat CPU 0 instructions: 18000002 cycles: 5806043 heartbeat IPC: 3.18814 cumulative IPC: 3.10022 (Simulation time: 0 hr 0 min 48 sec) 
updateCurrDst(18381)
updateCurrDst(18402)
updateCurrDst(18472)
updateCurrDst(18493)
updateCurrDst(18509)
updateCurrDst(18545)
updateCurrDst(18604)
updateCurrDst(18676)
updateCurrDst(18796)
updateCurrDst(19063)
updateCurrDst(19082)
updateCurrDst(19124)
updateCurrDst(19156)
updateCurrDst(19259)
updateCurrDst(19323)
updateCurrDst(19366)
Heartbeat CPU 0 instructions: 19000000 cycles: 6119574 heartbeat IPC: 3.18947 cumulative IPC: 3.10479 (Simulation time: 0 hr 0 min 51 sec) 
updateCurrDst(20027)
updateCurrDst(20036)
updateCurrDst(20074)
updateCurrDst(20187)
updateCurrDst(20244)
updateCurrDst(20295)
updateCurrDst(20361)
updateCurrDst(20386)
updateCurrDst(20631)
updateCurrDst(20744)
updateCurrDst(20990)
updateCurrDst(21135)
Heartbeat CPU 0 instructions: 20000000 cycles: 6433125 heartbeat IPC: 3.18927 cumulative IPC: 3.10891 (Simulation time: 0 hr 0 min 54 sec) 
updateCurrDst(21547)
updateCurrDst(21599)
updateCurrDst(21638)
updateCurrDst(21747)
updateCurrDst(21763)
updateCurrDst(21764)
updateCurrDst(22115)
updateCurrDst(22142)
updateCurrDst(22296)
updateCurrDst(22373)
updateCurrDst(22376)
updateCurrDst(22424)
updateCurrDst(22636)
updateCurrDst(22643)
Heartbeat CPU 0 instructions: 21000001 cycles: 6747186 heartbeat IPC: 3.1841 cumulative IPC: 3.11241 (Simulation time: 0 hr 0 min 57 sec) 
updateCurrDst(22769)
updateCurrDst(23012)
updateCurrDst(23034)
updateCurrDst(23221)
updateCurrDst(23245)
updateCurrDst(23340)
updateCurrDst(23399)
updateCurrDst(23480)
updateCurrDst(23503)
updateCurrDst(23605)
updateCurrDst(23624)
updateCurrDst(23922)
updateCurrDst(23969)
Heartbeat CPU 0 instructions: 22000000 cycles: 7060891 heartbeat IPC: 3.18771 cumulative IPC: 3.11575 (Simulation time: 0 hr 1 min 0 sec) 
updateCurrDst(24431)
updateCurrDst(24520)
updateCurrDst(24529)
updateCurrDst(24565)
updateCurrDst(24659)
updateCurrDst(24702)
updateCurrDst(24784)
updateCurrDst(24967)
updateCurrDst(24991)
updateCurrDst(25035)
updateCurrDst(25121)
updateCurrDst(25195)
updateCurrDst(25311)
updateCurrDst(25356)
updateCurrDst(25474)
updateCurrDst(25522)
updateCurrDst(25566)
updateCurrDst(25624)
updateCurrDst(25655)
updateCurrDst(25681)
Heartbeat CPU 0 instructions: 23000003 cycles: 7374760 heartbeat IPC: 3.18605 cumulative IPC: 3.11875 (Simulation time: 0 hr 1 min 3 sec) 
updateCurrDst(25733)
updateCurrDst(26315)
updateCurrDst(27009)
updateCurrDst(27028)
Heartbeat CPU 0 instructions: 24000001 cycles: 7688532 heartbeat IPC: 3.18702 cumulative IPC: 3.12153 (Simulation time: 0 hr 1 min 6 sec) 
updateCurrDst(27746)
updateCurrDst(27760)
updateCurrDst(27804)
updateCurrDst(27835)
updateCurrDst(28102)
updateCurrDst(28103)
updateCurrDst(28153)
updateCurrDst(28254)
updateCurrDst(28270)
updateCurrDst(28308)
updateCurrDst(28412)
updateCurrDst(28501)
updateCurrDst(28648)
Heartbeat CPU 0 instructions: 25000001 cycles: 8002370 heartbeat IPC: 3.18636 cumulative IPC: 3.12407 (Simulation time: 0 hr 1 min 10 sec) 
updateCurrDst(28704)
updateCurrDst(28786)
updateCurrDst(28826)
updateCurrDst(28844)
updateCurrDst(28912)
updateCurrDst(29103)
updateCurrDst(29223)
updateCurrDst(29230)
updateCurrDst(29522)
updateCurrDst(29544)
updateCurrDst(29582)
updateCurrDst(29739)
updateCurrDst(29821)
updateCurrDst(29957)
updateCurrDst(29968)
updateCurrDst(29988)
updateCurrDst(30017)
updateCurrDst(30134)
updateCurrDst(30147)
Heartbeat CPU 0 instructions: 26000003 cycles: 8316171 heartbeat IPC: 3.18674 cumulative IPC: 3.12644 (Simulation time: 0 hr 1 min 13 sec) 
updateCurrDst(30179)
updateCurrDst(30187)
updateCurrDst(30330)
updateCurrDst(30392)
updateCurrDst(30446)
updateCurrDst(30496)
updateCurrDst(30538)
updateCurrDst(30548)
updateCurrDst(30767)
updateCurrDst(30784)
updateCurrDst(30828)
updateCurrDst(30856)
updateCurrDst(31101)
updateCurrDst(31153)
updateCurrDst(31253)
updateCurrDst(31403)
updateCurrDst(31464)
updateCurrDst(31474)
updateCurrDst(31533)
Heartbeat CPU 0 instructions: 27000003 cycles: 8629875 heartbeat IPC: 3.18772 cumulative IPC: 3.12867 (Simulation time: 0 hr 1 min 16 sec) 
updateCurrDst(31640)
updateCurrDst(31753)
updateCurrDst(31948)
updateCurrDst(32051)
updateCurrDst(32101)
updateCurrDst(32269)
updateCurrDst(32331)
updateCurrDst(32363)
updateCurrDst(32383)
updateCurrDst(32504)
updateCurrDst(32511)
updateCurrDst(32538)
updateCurrDst(32814)
updateCurrDst(32829)
updateCurrDst(32903)
Heartbeat CPU 0 instructions: 28000001 cycles: 8943845 heartbeat IPC: 3.18501 cumulative IPC: 3.13064 (Simulation time: 0 hr 1 min 19 sec) 
updateCurrDst(33237)
updateCurrDst(33273)
updateCurrDst(33288)
updateCurrDst(33544)
updateCurrDst(33611)
updateCurrDst(33659)
updateCurrDst(33804)
updateCurrDst(33815)
updateCurrDst(33915)
updateCurrDst(34005)
updateCurrDst(34175)
updateCurrDst(34270)
updateCurrDst(34381)
Heartbeat CPU 0 instructions: 29000002 cycles: 9257766 heartbeat IPC: 3.18552 cumulative IPC: 3.13251 (Simulation time: 0 hr 1 min 22 sec) 
updateCurrDst(34712)
updateCurrDst(34936)
updateCurrDst(35134)
updateCurrDst(35236)
updateCurrDst(35237)
updateCurrDst(35408)
updateCurrDst(35432)
updateCurrDst(35443)
updateCurrDst(35577)
updateCurrDst(35681)
updateCurrDst(35697)
updateCurrDst(35756)
updateCurrDst(35824)
updateCurrDst(35859)
updateCurrDst(35899)
Heartbeat CPU 0 instructions: 30000003 cycles: 9571464 heartbeat IPC: 3.18778 cumulative IPC: 3.13432 (Simulation time: 0 hr 1 min 25 sec) 
updateCurrDst(36153)
updateCurrDst(36155)
updateCurrDst(36170)
updateCurrDst(36185)
updateCurrDst(36190)
updateCurrDst(36436)
updateCurrDst(36511)
updateCurrDst(36544)
updateCurrDst(36590)
updateCurrDst(36669)
updateCurrDst(36707)
updateCurrDst(36755)
updateCurrDst(36783)
updateCurrDst(36803)
updateCurrDst(36856)
updateCurrDst(36861)
updateCurrDst(36914)
updateCurrDst(36979)
updateCurrDst(37050)
updateCurrDst(37052)
updateCurrDst(37192)
updateCurrDst(37241)
updateCurrDst(37314)
updateCurrDst(37331)
updateCurrDst(37387)
updateCurrDst(37489)
updateCurrDst(37512)
Heartbeat CPU 0 instructions: 31000003 cycles: 9885363 heartbeat IPC: 3.18574 cumulative IPC: 3.13595 (Simulation time: 0 hr 1 min 28 sec) 
updateCurrDst(37663)
updateCurrDst(37865)
updateCurrDst(37947)
updateCurrDst(38150)
updateCurrDst(38278)
updateCurrDst(38377)
updateCurrDst(38479)
updateCurrDst(38726)
updateCurrDst(38835)
Heartbeat CPU 0 instructions: 32000000 cycles: 10199181 heartbeat IPC: 3.18655 cumulative IPC: 3.13751 (Simulation time: 0 hr 1 min 31 sec) 
updateCurrDst(39335)
updateCurrDst(39456)
updateCurrDst(39558)
updateCurrDst(39660)
updateCurrDst(39930)
updateCurrDst(39932)
updateCurrDst(40165)
updateCurrDst(40236)
updateCurrDst(40270)
updateCurrDst(40341)
updateCurrDst(40357)
updateCurrDst(40447)
Heartbeat CPU 0 instructions: 33000000 cycles: 10512921 heartbeat IPC: 3.18735 cumulative IPC: 3.13899 (Simulation time: 0 hr 1 min 34 sec) 
updateCurrDst(40675)
updateCurrDst(40743)
updateCurrDst(40759)
updateCurrDst(40816)
updateCurrDst(40861)
updateCurrDst(40898)
updateCurrDst(40899)
updateCurrDst(41104)
updateCurrDst(41105)
updateCurrDst(41270)
updateCurrDst(41302)
updateCurrDst(41374)
updateCurrDst(41576)
updateCurrDst(41617)
updateCurrDst(41661)
updateCurrDst(41726)
updateCurrDst(41839)
updateCurrDst(41981)
Heartbeat CPU 0 instructions: 34000001 cycles: 10826844 heartbeat IPC: 3.1855 cumulative IPC: 3.14034 (Simulation time: 0 hr 1 min 37 sec) 
updateCurrDst(42114)
updateCurrDst(42158)
updateCurrDst(42297)
updateCurrDst(42299)
updateCurrDst(42391)
updateCurrDst(42398)
updateCurrDst(42475)
updateCurrDst(42674)
updateCurrDst(42763)
updateCurrDst(42834)
updateCurrDst(42916)
updateCurrDst(43004)
updateCurrDst(43223)
Heartbeat CPU 0 instructions: 35000003 cycles: 11140764 heartbeat IPC: 3.18553 cumulative IPC: 3.14162 (Simulation time: 0 hr 1 min 40 sec) 
updateCurrDst(43533)
updateCurrDst(43581)
updateCurrDst(43624)
updateCurrDst(43674)
updateCurrDst(43698)
updateCurrDst(43767)
updateCurrDst(43768)
updateCurrDst(43835)
updateCurrDst(44118)
updateCurrDst(44333)
updateCurrDst(44530)
Heartbeat CPU 0 instructions: 36000003 cycles: 11454614 heartbeat IPC: 3.18624 cumulative IPC: 3.14284 (Simulation time: 0 hr 1 min 43 sec) 
updateCurrDst(45067)
updateCurrDst(45158)
updateCurrDst(45312)
updateCurrDst(45338)
updateCurrDst(45498)
updateCurrDst(45554)
updateCurrDst(46110)
updateCurrDst(46116)
updateCurrDst(46201)
updateCurrDst(46224)
updateCurrDst(46228)
updateCurrDst(46296)
updateCurrDst(46482)
Heartbeat CPU 0 instructions: 37000002 cycles: 11768245 heartbeat IPC: 3.18846 cumulative IPC: 3.14405 (Simulation time: 0 hr 1 min 46 sec) 
updateCurrDst(46601)
updateCurrDst(46659)
updateCurrDst(46869)
updateCurrDst(47141)
updateCurrDst(47254)
updateCurrDst(47277)
updateCurrDst(47384)
updateCurrDst(47418)
updateCurrDst(47662)
Heartbeat CPU 0 instructions: 38000003 cycles: 12081946 heartbeat IPC: 3.18775 cumulative IPC: 3.14519 (Simulation time: 0 hr 1 min 49 sec) 
updateCurrDst(47974)
updateCurrDst(48071)
updateCurrDst(48150)
updateCurrDst(48166)
updateCurrDst(48427)
updateCurrDst(48450)
updateCurrDst(48513)
updateCurrDst(48609)
updateCurrDst(48618)
updateCurrDst(48706)
updateCurrDst(48789)
updateCurrDst(48835)
updateCurrDst(49079)
updateCurrDst(49095)
updateCurrDst(49157)
updateCurrDst(49247)
updateCurrDst(49266)
updateCurrDst(49345)
Heartbeat CPU 0 instructions: 39000003 cycles: 12396115 heartbeat IPC: 3.183 cumulative IPC: 3.14615 (Simulation time: 0 hr 1 min 52 sec) 
updateCurrDst(49600)
updateCurrDst(49692)
updateCurrDst(49856)
updateCurrDst(49984)
updateCurrDst(50105)
updateCurrDst(50124)
updateCurrDst(50177)
updateCurrDst(50282)
updateCurrDst(50290)
updateCurrDst(50340)
updateCurrDst(50349)
updateCurrDst(50493)
updateCurrDst(50622)
updateCurrDst(50658)
updateCurrDst(50760)
updateCurrDst(50816)
updateCurrDst(50820)
updateCurrDst(50913)
Heartbeat CPU 0 instructions: 40000003 cycles: 12710295 heartbeat IPC: 3.18289 cumulative IPC: 3.14706 (Simulation time: 0 hr 1 min 55 sec) 
updateCurrDst(51083)
updateCurrDst(51112)
updateCurrDst(51402)
updateCurrDst(51506)
updateCurrDst(51616)
updateCurrDst(51622)
updateCurrDst(51740)
updateCurrDst(51871)
updateCurrDst(52065)
updateCurrDst(52102)
updateCurrDst(52118)
updateCurrDst(52140)
updateCurrDst(52145)
updateCurrDst(52360)
updateCurrDst(52364)
updateCurrDst(52443)
Heartbeat CPU 0 instructions: 41000000 cycles: 13024175 heartbeat IPC: 3.18592 cumulative IPC: 3.14799 (Simulation time: 0 hr 1 min 59 sec) 
updateCurrDst(52463)
updateCurrDst(52692)
updateCurrDst(52806)
updateCurrDst(52891)
updateCurrDst(52930)
updateCurrDst(53012)
updateCurrDst(53145)
updateCurrDst(53192)
updateCurrDst(53224)
updateCurrDst(53279)
updateCurrDst(53362)
updateCurrDst(53467)
updateCurrDst(53482)
updateCurrDst(53499)
updateCurrDst(53547)
updateCurrDst(53644)
updateCurrDst(53650)
updateCurrDst(53688)
updateCurrDst(53691)
updateCurrDst(53820)
updateCurrDst(53895)
updateCurrDst(53897)
Heartbeat CPU 0 instructions: 42000002 cycles: 13337943 heartbeat IPC: 3.18707 cumulative IPC: 3.14891 (Simulation time: 0 hr 2 min 2 sec) 
updateCurrDst(53974)
updateCurrDst(54152)
updateCurrDst(54171)
updateCurrDst(54207)
updateCurrDst(54622)
updateCurrDst(54838)
updateCurrDst(54900)
updateCurrDst(54990)
updateCurrDst(55028)
updateCurrDst(55255)
updateCurrDst(55279)
updateCurrDst(55284)
updateCurrDst(55298)
updateCurrDst(55301)
Heartbeat CPU 0 instructions: 43000001 cycles: 13651813 heartbeat IPC: 3.18603 cumulative IPC: 3.14976 (Simulation time: 0 hr 2 min 5 sec) 
updateCurrDst(55490)
updateCurrDst(55574)
updateCurrDst(55923)
updateCurrDst(55935)
updateCurrDst(55944)
updateCurrDst(55989)
updateCurrDst(56158)
updateCurrDst(56241)
updateCurrDst(56390)
updateCurrDst(56466)
updateCurrDst(56509)
updateCurrDst(56617)
updateCurrDst(56822)
updateCurrDst(56864)
Heartbeat CPU 0 instructions: 44000000 cycles: 13965693 heartbeat IPC: 3.18593 cumulative IPC: 3.15058 (Simulation time: 0 hr 2 min 8 sec) 
updateCurrDst(56994)
updateCurrDst(57088)
updateCurrDst(57090)
updateCurrDst(57124)
updateCurrDst(57305)
updateCurrDst(57389)
updateCurrDst(57468)
updateCurrDst(57521)
updateCurrDst(57524)
updateCurrDst(57540)
updateCurrDst(57549)
updateCurrDst(58027)
updateCurrDst(58336)
updateCurrDst(58387)
Heartbeat CPU 0 instructions: 45000002 cycles: 14279432 heartbeat IPC: 3.18737 cumulative IPC: 3.15139 (Simulation time: 0 hr 2 min 10 sec) 
updateCurrDst(58422)
updateCurrDst(58482)
updateCurrDst(58511)
updateCurrDst(58533)
updateCurrDst(58765)
updateCurrDst(58838)
updateCurrDst(58990)
updateCurrDst(59026)
updateCurrDst(59153)
updateCurrDst(59268)
updateCurrDst(59387)
updateCurrDst(59389)
updateCurrDst(59582)
updateCurrDst(59681)
Heartbeat CPU 0 instructions: 46000003 cycles: 14593226 heartbeat IPC: 3.18681 cumulative IPC: 3.15215 (Simulation time: 0 hr 2 min 14 sec) 
updateCurrDst(59947)
updateCurrDst(59983)
updateCurrDst(60109)
updateCurrDst(60141)
updateCurrDst(60148)
updateCurrDst(60283)
updateCurrDst(60495)
updateCurrDst(60574)
updateCurrDst(60757)
updateCurrDst(60794)
updateCurrDst(60965)
updateCurrDst(61080)
updateCurrDst(61091)
updateCurrDst(61249)
Heartbeat CPU 0 instructions: 47000002 cycles: 14907217 heartbeat IPC: 3.1848 cumulative IPC: 3.15284 (Simulation time: 0 hr 2 min 17 sec) 

Warmup complete CPU 0 instructions: 47000002 cycles: 14907217 (Simulation time: 0 hr 2 min 17 sec) 

updateCurrDst(61426)
updateCurrDst(61443)
updateCurrDst(61594)
updateCurrDst(61616)
updateCurrDst(61621)
updateCurrDst(61644)
updateCurrDst(61664)
updateCurrDst(61665)
updateCurrDst(61693)
updateCurrDst(61702)
updateCurrDst(61707)
updateCurrDst(61758)
updateCurrDst(61900)
updateCurrDst(61904)
updateCurrDst(62126)
updateCurrDst(62161)
updateCurrDst(62296)
updateCurrDst(62363)
updateCurrDst(62481)
updateCurrDst(62714)
updateCurrDst(62823)
updateCurrDst(62851)
updateCurrDst(62856)
updateCurrDst(62873)
Heartbeat CPU 0 instructions: 48000000 cycles: 17995521 heartbeat IPC: 0.323802 cumulative IPC: 0.323802 (Simulation time: 0 hr 2 min 21 sec) 
updateCurrDst(62879)
updateCurrDst(62895)
updateCurrDst(62901)
updateCurrDst(63030)
updateCurrDst(63244)
updateCurrDst(63334)
updateCurrDst(63365)
updateCurrDst(63435)
updateCurrDst(63593)
updateCurrDst(63663)
updateCurrDst(63750)
updateCurrDst(63770)
updateCurrDst(64041)
updateCurrDst(64065)
updateCurrDst(64108)
updateCurrDst(64188)
updateCurrDst(64265)
Heartbeat CPU 0 instructions: 49000002 cycles: 21082606 heartbeat IPC: 0.323931 cumulative IPC: 0.323866 (Simulation time: 0 hr 2 min 24 sec) 
updateCurrDst(64638)
updateCurrDst(64720)
updateCurrDst(64722)
updateCurrDst(64762)
updateCurrDst(64963)
updateCurrDst(64997)
updateCurrDst(65073)
updateCurrDst(65141)
updateCurrDst(65316)
updateCurrDst(65450)
updateCurrDst(65462)
updateCurrDst(65513)
updateCurrDst(65590)
updateCurrDst(65646)
updateCurrDst(65680)
Heartbeat CPU 0 instructions: 50000002 cycles: 24163868 heartbeat IPC: 0.324542 cumulative IPC: 0.324091 (Simulation time: 0 hr 2 min 28 sec) 
updateCurrDst(65936)
updateCurrDst(65970)
updateCurrDst(65993)
updateCurrDst(66035)
updateCurrDst(66131)
updateCurrDst(66249)
updateCurrDst(66263)
updateCurrDst(66266)
updateCurrDst(66658)
updateCurrDst(66851)
updateCurrDst(66912)
updateCurrDst(67001)
updateCurrDst(67014)
updateCurrDst(67063)
updateCurrDst(67129)
updateCurrDst(67335)
Heartbeat CPU 0 instructions: 51000003 cycles: 27257568 heartbeat IPC: 0.323238 cumulative IPC: 0.323878 (Simulation time: 0 hr 2 min 32 sec) 
updateCurrDst(67478)
updateCurrDst(67822)
updateCurrDst(67947)
updateCurrDst(68074)
updateCurrDst(68097)
updateCurrDst(68319)
updateCurrDst(68327)
updateCurrDst(68524)
updateCurrDst(68697)
updateCurrDst(68743)
updateCurrDst(68762)
Heartbeat CPU 0 instructions: 52000002 cycles: 30343483 heartbeat IPC: 0.324053 cumulative IPC: 0.323913 (Simulation time: 0 hr 2 min 36 sec) 
updateCurrDst(68983)
updateCurrDst(68999)
updateCurrDst(69048)
updateCurrDst(69078)
updateCurrDst(69391)
updateCurrDst(69455)
updateCurrDst(69594)
updateCurrDst(69655)
updateCurrDst(69731)
updateCurrDst(69750)
updateCurrDst(69828)
updateCurrDst(69896)
updateCurrDst(69950)
updateCurrDst(70257)
updateCurrDst(70259)
updateCurrDst(70289)
Heartbeat CPU 0 instructions: 53000001 cycles: 33430757 heartbeat IPC: 0.32391 cumulative IPC: 0.323912 (Simulation time: 0 hr 2 min 39 sec) 
updateCurrDst(70472)
updateCurrDst(70500)
updateCurrDst(70851)
updateCurrDst(71016)
updateCurrDst(71046)
updateCurrDst(71308)
updateCurrDst(71602)
updateCurrDst(71706)
Heartbeat CPU 0 instructions: 54000000 cycles: 36511414 heartbeat IPC: 0.324606 cumulative IPC: 0.324011 (Simulation time: 0 hr 2 min 43 sec) 
updateCurrDst(71887)
updateCurrDst(71926)
updateCurrDst(71986)
updateCurrDst(72040)
updateCurrDst(72071)
updateCurrDst(72170)
updateCurrDst(72199)
updateCurrDst(72244)
updateCurrDst(72369)
updateCurrDst(72513)
updateCurrDst(72528)
updateCurrDst(72608)
updateCurrDst(72647)
updateCurrDst(72804)
updateCurrDst(72887)
updateCurrDst(72909)
updateCurrDst(72939)
updateCurrDst(72996)
updateCurrDst(73051)
updateCurrDst(73068)
updateCurrDst(73117)
updateCurrDst(73196)
Heartbeat CPU 0 instructions: 55000000 cycles: 39597405 heartbeat IPC: 0.324045 cumulative IPC: 0.324015 (Simulation time: 0 hr 2 min 46 sec) 
updateCurrDst(73294)
updateCurrDst(73432)
updateCurrDst(73680)
updateCurrDst(73833)
updateCurrDst(73898)
updateCurrDst(73963)
updateCurrDst(74029)
updateCurrDst(74139)
updateCurrDst(74174)
updateCurrDst(74392)
updateCurrDst(74448)
updateCurrDst(74504)
updateCurrDst(74516)
updateCurrDst(74559)
updateCurrDst(74716)
Heartbeat CPU 0 instructions: 56000002 cycles: 42684638 heartbeat IPC: 0.323915 cumulative IPC: 0.324004 (Simulation time: 0 hr 2 min 50 sec) 
updateCurrDst(74812)
updateCurrDst(74980)
updateCurrDst(74993)
updateCurrDst(75025)
updateCurrDst(75047)
updateCurrDst(75302)
updateCurrDst(75369)
updateCurrDst(75468)
updateCurrDst(75542)
updateCurrDst(75784)
updateCurrDst(75909)
updateCurrDst(75919)
updateCurrDst(75940)
updateCurrDst(75948)
updateCurrDst(75949)
updateCurrDst(76123)
updateCurrDst(76161)
Heartbeat CPU 0 instructions: 57000000 cycles: 45764343 heartbeat IPC: 0.324706 cumulative IPC: 0.324074 (Simulation time: 0 hr 2 min 54 sec) 
updateCurrDst(76283)
updateCurrDst(76288)
updateCurrDst(76292)
updateCurrDst(76312)
updateCurrDst(76351)
updateCurrDst(76365)
updateCurrDst(76368)
updateCurrDst(76584)
updateCurrDst(76717)
updateCurrDst(76727)
updateCurrDst(76735)
updateCurrDst(76876)
updateCurrDst(76937)
updateCurrDst(77105)
updateCurrDst(77131)
updateCurrDst(77146)
updateCurrDst(77203)
updateCurrDst(77236)
updateCurrDst(77396)
updateCurrDst(77536)
Heartbeat CPU 0 instructions: 58000001 cycles: 48848310 heartbeat IPC: 0.324258 cumulative IPC: 0.324091 (Simulation time: 0 hr 2 min 57 sec) 
updateCurrDst(77795)
updateCurrDst(77852)
updateCurrDst(77863)
updateCurrDst(78114)
updateCurrDst(78179)
updateCurrDst(78183)
updateCurrDst(78286)
updateCurrDst(78527)
updateCurrDst(78640)
updateCurrDst(78679)
updateCurrDst(78785)
updateCurrDst(78841)
updateCurrDst(78918)
updateCurrDst(79001)
updateCurrDst(79054)
updateCurrDst(79055)
Heartbeat CPU 0 instructions: 59000000 cycles: 51927314 heartbeat IPC: 0.32478 cumulative IPC: 0.324148 (Simulation time: 0 hr 3 min 1 sec) 
updateCurrDst(79325)
updateCurrDst(79430)
updateCurrDst(79442)
updateCurrDst(79551)
updateCurrDst(79693)
updateCurrDst(79792)
updateCurrDst(79797)
updateCurrDst(79934)
updateCurrDst(79943)
updateCurrDst(79950)
updateCurrDst(80006)
updateCurrDst(80140)
updateCurrDst(80149)
updateCurrDst(80155)
updateCurrDst(80202)
updateCurrDst(80219)
updateCurrDst(80325)
Heartbeat CPU 0 instructions: 60000002 cycles: 55009863 heartbeat IPC: 0.324407 cumulative IPC: 0.324168 (Simulation time: 0 hr 3 min 4 sec) 
updateCurrDst(80839)
updateCurrDst(80868)
updateCurrDst(80927)
updateCurrDst(80959)
updateCurrDst(81016)
updateCurrDst(81108)
updateCurrDst(81196)
updateCurrDst(81256)
updateCurrDst(81263)
updateCurrDst(81513)
updateCurrDst(81592)
updateCurrDst(81624)
updateCurrDst(81679)
updateCurrDst(81781)
updateCurrDst(81841)
updateCurrDst(81958)
updateCurrDst(82117)
Heartbeat CPU 0 instructions: 61000000 cycles: 58100199 heartbeat IPC: 0.323589 cumulative IPC: 0.324127 (Simulation time: 0 hr 3 min 8 sec) 
updateCurrDst(82385)
updateCurrDst(82535)
updateCurrDst(82727)
updateCurrDst(82741)
updateCurrDst(82777)
updateCurrDst(82864)
updateCurrDst(82916)
updateCurrDst(82968)
updateCurrDst(82973)
updateCurrDst(83111)
updateCurrDst(83173)
updateCurrDst(83229)
updateCurrDst(83375)
updateCurrDst(83380)
updateCurrDst(83439)
updateCurrDst(83518)
updateCurrDst(83568)
updateCurrDst(83590)
updateCurrDst(83611)
Heartbeat CPU 0 instructions: 62000000 cycles: 61181405 heartbeat IPC: 0.324548 cumulative IPC: 0.324155 (Simulation time: 0 hr 3 min 12 sec) 
updateCurrDst(83727)
updateCurrDst(83737)
updateCurrDst(83747)
updateCurrDst(83776)
updateCurrDst(83854)
updateCurrDst(83955)
updateCurrDst(83970)
updateCurrDst(84072)
updateCurrDst(84121)
updateCurrDst(84629)
updateCurrDst(84645)
updateCurrDst(84797)
updateCurrDst(84822)
updateCurrDst(84843)
updateCurrDst(84844)
updateCurrDst(84921)
updateCurrDst(85162)
Heartbeat CPU 0 instructions: 63000000 cycles: 64276482 heartbeat IPC: 0.323094 cumulative IPC: 0.324088 (Simulation time: 0 hr 3 min 16 sec) 
updateCurrDst(85183)
updateCurrDst(85356)
updateCurrDst(85498)
updateCurrDst(85527)
updateCurrDst(85768)
updateCurrDst(85774)
updateCurrDst(86130)
updateCurrDst(86268)
updateCurrDst(86316)
updateCurrDst(86366)
updateCurrDst(86391)
updateCurrDst(86457)
updateCurrDst(86471)
Heartbeat CPU 0 instructions: 64000002 cycles: 67356065 heartbeat IPC: 0.32472 cumulative IPC: 0.324125 (Simulation time: 0 hr 3 min 19 sec) 
updateCurrDst(86702)
updateCurrDst(86800)
updateCurrDst(86836)
updateCurrDst(86887)
updateCurrDst(87005)
updateCurrDst(87043)
updateCurrDst(87088)
updateCurrDst(87177)
updateCurrDst(87743)
updateCurrDst(87794)
updateCurrDst(87986)
updateCurrDst(88016)
Heartbeat CPU 0 instructions: 65000002 cycles: 70446534 heartbeat IPC: 0.323575 cumulative IPC: 0.324095 (Simulation time: 0 hr 3 min 23 sec) 
updateCurrDst(88191)
updateCurrDst(88302)
updateCurrDst(88468)
updateCurrDst(88502)
updateCurrDst(88516)
updateCurrDst(88541)
updateCurrDst(88612)
updateCurrDst(88679)
updateCurrDst(88796)
updateCurrDst(88946)
updateCurrDst(89021)
updateCurrDst(89074)
updateCurrDst(89171)
updateCurrDst(89315)
updateCurrDst(89420)
updateCurrDst(89425)
updateCurrDst(89485)
updateCurrDst(89495)
updateCurrDst(89511)
Heartbeat CPU 0 instructions: 66000000 cycles: 73531483 heartbeat IPC: 0.324154 cumulative IPC: 0.324098 (Simulation time: 0 hr 3 min 27 sec) 
updateCurrDst(89766)
updateCurrDst(89796)
updateCurrDst(89989)
updateCurrDst(89994)
updateCurrDst(90028)
updateCurrDst(90100)
updateCurrDst(90126)
updateCurrDst(90129)
updateCurrDst(90196)
updateCurrDst(90641)
updateCurrDst(90757)
Heartbeat CPU 0 instructions: 67000000 cycles: 76611526 heartbeat IPC: 0.324671 cumulative IPC: 0.324126 (Simulation time: 0 hr 3 min 30 sec) 
updateCurrDst(91369)
updateCurrDst(91548)
updateCurrDst(91577)
updateCurrDst(91604)
updateCurrDst(91636)
updateCurrDst(91674)
updateCurrDst(91764)
updateCurrDst(91887)
updateCurrDst(92228)
Heartbeat CPU 0 instructions: 68000001 cycles: 79700333 heartbeat IPC: 0.32375 cumulative IPC: 0.324108 (Simulation time: 0 hr 3 min 34 sec) 
updateCurrDst(92824)
updateCurrDst(92933)
updateCurrDst(93091)
updateCurrDst(93446)
updateCurrDst(93576)
updateCurrDst(93605)
updateCurrDst(93743)
updateCurrDst(93819)
updateCurrDst(93846)
updateCurrDst(93904)
updateCurrDst(93976)
updateCurrDst(94070)
Heartbeat CPU 0 instructions: 69000000 cycles: 82780029 heartbeat IPC: 0.324707 cumulative IPC: 0.324136 (Simulation time: 0 hr 3 min 37 sec) 
updateCurrDst(94125)
updateCurrDst(94140)
updateCurrDst(94171)
updateCurrDst(94638)
updateCurrDst(94892)
updateCurrDst(94946)
updateCurrDst(95031)
updateCurrDst(95111)
updateCurrDst(95278)
updateCurrDst(95320)
updateCurrDst(95327)
updateCurrDst(95447)
updateCurrDst(95535)
Heartbeat CPU 0 instructions: 70000000 cycles: 85870415 heartbeat IPC: 0.323584 cumulative IPC: 0.324112 (Simulation time: 0 hr 3 min 41 sec) 
updateCurrDst(95673)
updateCurrDst(95862)
updateCurrDst(95891)
updateCurrDst(96270)
updateCurrDst(96278)
updateCurrDst(96488)
updateCurrDst(96499)
updateCurrDst(96565)
updateCurrDst(96771)
updateCurrDst(96832)
updateCurrDst(96879)
updateCurrDst(97030)
Heartbeat CPU 0 instructions: 71000002 cycles: 88950486 heartbeat IPC: 0.324668 cumulative IPC: 0.324135 (Simulation time: 0 hr 3 min 45 sec) 
updateCurrDst(97090)
updateCurrDst(97245)
updateCurrDst(97258)
updateCurrDst(97473)
updateCurrDst(97541)
updateCurrDst(97589)
updateCurrDst(97714)
updateCurrDst(97754)
updateCurrDst(97819)
updateCurrDst(97931)
updateCurrDst(97934)
updateCurrDst(98447)
updateCurrDst(98534)
Heartbeat CPU 0 instructions: 72000002 cycles: 92030699 heartbeat IPC: 0.324653 cumulative IPC: 0.324155 (Simulation time: 0 hr 3 min 48 sec) 
updateCurrDst(98603)
updateCurrDst(98681)
updateCurrDst(98705)
updateCurrDst(98865)
updateCurrDst(98926)
updateCurrDst(98927)
updateCurrDst(99042)
updateCurrDst(99080)
updateCurrDst(99150)
updateCurrDst(99169)
updateCurrDst(99239)
updateCurrDst(99369)
updateCurrDst(99487)
updateCurrDst(99619)
updateCurrDst(99716)
updateCurrDst(99813)
updateCurrDst(99877)
updateCurrDst(99973)
Heartbeat CPU 0 instructions: 73000000 cycles: 95122879 heartbeat IPC: 0.323396 cumulative IPC: 0.324126 (Simulation time: 0 hr 3 min 52 sec) 
updateCurrDst(100065)
updateCurrDst(100101)
updateCurrDst(100145)
updateCurrDst(100154)
updateCurrDst(100279)
updateCurrDst(100356)
updateCurrDst(100390)
updateCurrDst(100450)
updateCurrDst(100505)
updateCurrDst(100587)
updateCurrDst(100732)
updateCurrDst(100740)
updateCurrDst(100838)
updateCurrDst(101059)
updateCurrDst(101219)
updateCurrDst(101278)
updateCurrDst(101399)
Heartbeat CPU 0 instructions: 74000002 cycles: 98203615 heartbeat IPC: 0.324598 cumulative IPC: 0.324144 (Simulation time: 0 hr 3 min 55 sec) 
updateCurrDst(101671)
updateCurrDst(101792)
updateCurrDst(101851)
updateCurrDst(101856)
updateCurrDst(101877)
updateCurrDst(101878)
updateCurrDst(102073)
updateCurrDst(102311)
updateCurrDst(102382)
updateCurrDst(102401)
updateCurrDst(102770)
Heartbeat CPU 0 instructions: 75000000 cycles: 101292748 heartbeat IPC: 0.323715 cumulative IPC: 0.324128 (Simulation time: 0 hr 3 min 59 sec) 
updateCurrDst(103033)
updateCurrDst(103096)
updateCurrDst(103186)
updateCurrDst(103358)
updateCurrDst(103509)
updateCurrDst(103569)
updateCurrDst(103585)
updateCurrDst(103662)
updateCurrDst(103670)
updateCurrDst(103680)
updateCurrDst(103845)
updateCurrDst(103857)
updateCurrDst(103914)
updateCurrDst(103952)
updateCurrDst(103974)
updateCurrDst(104114)
updateCurrDst(104208)
updateCurrDst(104271)
updateCurrDst(104290)
updateCurrDst(104361)
updateCurrDst(104374)
Heartbeat CPU 0 instructions: 76000003 cycles: 104378704 heartbeat IPC: 0.32405 cumulative IPC: 0.324126 (Simulation time: 0 hr 4 min 3 sec) 
updateCurrDst(104553)
updateCurrDst(104626)
updateCurrDst(104724)
updateCurrDst(104771)
updateCurrDst(104841)
updateCurrDst(104941)
updateCurrDst(104976)
updateCurrDst(105039)
updateCurrDst(105063)
updateCurrDst(105096)
updateCurrDst(105121)
updateCurrDst(105189)
updateCurrDst(105201)
updateCurrDst(105294)
updateCurrDst(105315)
updateCurrDst(105323)
updateCurrDst(105347)
updateCurrDst(105363)
updateCurrDst(105388)
updateCurrDst(105417)
updateCurrDst(105517)
updateCurrDst(105644)
updateCurrDst(105874)
updateCurrDst(105901)
updateCurrDst(106000)
Heartbeat CPU 0 instructions: 77000000 cycles: 107463327 heartbeat IPC: 0.324188 cumulative IPC: 0.324128 (Simulation time: 0 hr 4 min 6 sec) 
updateCurrDst(106066)
updateCurrDst(106228)
updateCurrDst(106230)
updateCurrDst(106329)
updateCurrDst(106381)
updateCurrDst(106415)
updateCurrDst(106498)
updateCurrDst(106738)
updateCurrDst(106741)
updateCurrDst(106783)
updateCurrDst(106836)
updateCurrDst(106851)
updateCurrDst(106993)
updateCurrDst(107069)
updateCurrDst(107282)
updateCurrDst(107283)
updateCurrDst(107307)
updateCurrDst(107309)
updateCurrDst(107333)
updateCurrDst(107340)
updateCurrDst(107482)
updateCurrDst(107489)
Heartbeat CPU 0 instructions: 78000001 cycles: 110552517 heartbeat IPC: 0.32371 cumulative IPC: 0.324114 (Simulation time: 0 hr 4 min 10 sec) 
updateCurrDst(107733)
updateCurrDst(107753)
updateCurrDst(107793)
updateCurrDst(108125)
updateCurrDst(108170)
updateCurrDst(108221)
updateCurrDst(108390)
updateCurrDst(108522)
updateCurrDst(108531)
updateCurrDst(108544)
updateCurrDst(108842)
Heartbeat CPU 0 instructions: 79000000 cycles: 113646379 heartbeat IPC: 0.32322 cumulative IPC: 0.324086 (Simulation time: 0 hr 4 min 14 sec) 
updateCurrDst(109160)
updateCurrDst(109214)
updateCurrDst(109356)
updateCurrDst(109414)
updateCurrDst(109523)
updateCurrDst(109644)
updateCurrDst(109762)
updateCurrDst(109835)
updateCurrDst(109852)
updateCurrDst(109867)
updateCurrDst(109903)
updateCurrDst(109946)
updateCurrDst(109987)
updateCurrDst(110036)
updateCurrDst(110106)
updateCurrDst(110248)
updateCurrDst(110339)
updateCurrDst(110415)
updateCurrDst(110417)
Heartbeat CPU 0 instructions: 80000001 cycles: 116727206 heartbeat IPC: 0.324589 cumulative IPC: 0.324101 (Simulation time: 0 hr 4 min 19 sec) 
updateCurrDst(110607)
updateCurrDst(110615)
updateCurrDst(110753)
updateCurrDst(110776)
updateCurrDst(110804)
updateCurrDst(110833)
updateCurrDst(110922)
updateCurrDst(110968)
updateCurrDst(111090)
updateCurrDst(111098)
updateCurrDst(111131)
updateCurrDst(111163)
updateCurrDst(111362)
updateCurrDst(111416)
updateCurrDst(111435)
updateCurrDst(111468)
updateCurrDst(111507)
updateCurrDst(111544)
updateCurrDst(111706)
updateCurrDst(111809)
Heartbeat CPU 0 instructions: 81000000 cycles: 119807639 heartbeat IPC: 0.324629 cumulative IPC: 0.324117 (Simulation time: 0 hr 4 min 22 sec) 
updateCurrDst(111979)
updateCurrDst(111989)
updateCurrDst(112101)
updateCurrDst(112205)
updateCurrDst(112325)
updateCurrDst(112343)
updateCurrDst(112454)
updateCurrDst(112516)
updateCurrDst(112521)
updateCurrDst(112721)
updateCurrDst(112853)
updateCurrDst(113049)
updateCurrDst(113076)
updateCurrDst(113082)
updateCurrDst(113191)
updateCurrDst(113250)
updateCurrDst(113257)
updateCurrDst(113400)
Heartbeat CPU 0 instructions: 82000000 cycles: 122903639 heartbeat IPC: 0.322997 cumulative IPC: 0.324085 (Simulation time: 0 hr 4 min 26 sec) 
updateCurrDst(113532)
updateCurrDst(113760)
updateCurrDst(113847)
updateCurrDst(113872)
updateCurrDst(113938)
updateCurrDst(114003)
updateCurrDst(114044)
updateCurrDst(114186)
updateCurrDst(114431)
updateCurrDst(114539)
updateCurrDst(114629)
updateCurrDst(114738)
Heartbeat CPU 0 instructions: 83000000 cycles: 125985882 heartbeat IPC: 0.324439 cumulative IPC: 0.324095 (Simulation time: 0 hr 4 min 30 sec) 
updateCurrDst(114957)
updateCurrDst(114990)
updateCurrDst(115092)
updateCurrDst(115158)
updateCurrDst(115318)
updateCurrDst(115472)
updateCurrDst(115656)
updateCurrDst(115947)
updateCurrDst(116005)
updateCurrDst(116100)
updateCurrDst(116145)
updateCurrDst(116189)
updateCurrDst(116277)
updateCurrDst(116325)
updateCurrDst(116415)
Heartbeat CPU 0 instructions: 84000003 cycles: 129066147 heartbeat IPC: 0.324648 cumulative IPC: 0.32411 (Simulation time: 0 hr 4 min 34 sec) 
updateCurrDst(116508)
updateCurrDst(116604)
updateCurrDst(116795)
updateCurrDst(116802)
updateCurrDst(116911)
updateCurrDst(116972)
updateCurrDst(116980)
updateCurrDst(116996)
updateCurrDst(117089)
updateCurrDst(117340)
updateCurrDst(117384)
updateCurrDst(117546)
updateCurrDst(117641)
updateCurrDst(117800)
updateCurrDst(117811)
Heartbeat CPU 0 instructions: 85000001 cycles: 132149497 heartbeat IPC: 0.324322 cumulative IPC: 0.324115 (Simulation time: 0 hr 4 min 37 sec) 
updateCurrDst(117926)
updateCurrDst(118043)
updateCurrDst(118124)
updateCurrDst(118250)
updateCurrDst(118341)
updateCurrDst(118358)
updateCurrDst(118362)
updateCurrDst(118370)
updateCurrDst(118372)
updateCurrDst(118457)
updateCurrDst(118725)
updateCurrDst(118842)
updateCurrDst(118866)
updateCurrDst(119039)
updateCurrDst(119074)
updateCurrDst(119106)
updateCurrDst(119143)
updateCurrDst(119169)
updateCurrDst(119180)
updateCurrDst(119254)
updateCurrDst(119314)
Heartbeat CPU 0 instructions: 86000001 cycles: 135229222 heartbeat IPC: 0.324704 cumulative IPC: 0.32413 (Simulation time: 0 hr 4 min 41 sec) 
updateCurrDst(119404)
updateCurrDst(119449)
updateCurrDst(119475)
updateCurrDst(119519)
updateCurrDst(119632)
updateCurrDst(119751)
updateCurrDst(119829)
updateCurrDst(119898)
updateCurrDst(120184)
updateCurrDst(120205)
updateCurrDst(120335)
updateCurrDst(120416)
updateCurrDst(120582)
updateCurrDst(120615)
updateCurrDst(120656)
updateCurrDst(120713)
Heartbeat CPU 0 instructions: 87000002 cycles: 138317196 heartbeat IPC: 0.323837 cumulative IPC: 0.324123 (Simulation time: 0 hr 4 min 44 sec) 
updateCurrDst(121000)
updateCurrDst(121100)
updateCurrDst(121185)
updateCurrDst(121210)
updateCurrDst(121303)
updateCurrDst(121432)
updateCurrDst(121487)
updateCurrDst(121825)
updateCurrDst(121900)
updateCurrDst(122150)
updateCurrDst(122253)
Heartbeat CPU 0 instructions: 88000000 cycles: 141398543 heartbeat IPC: 0.324533 cumulative IPC: 0.324133 (Simulation time: 0 hr 4 min 47 sec) 
updateCurrDst(122369)
updateCurrDst(122427)
updateCurrDst(122467)
updateCurrDst(122508)
updateCurrDst(122702)
updateCurrDst(122781)
updateCurrDst(122911)
updateCurrDst(122991)
updateCurrDst(123026)
updateCurrDst(123093)
updateCurrDst(123120)
updateCurrDst(123138)
updateCurrDst(123143)
updateCurrDst(123184)
updateCurrDst(123247)
updateCurrDst(123253)
updateCurrDst(123361)
updateCurrDst(123384)
updateCurrDst(123440)
updateCurrDst(123543)
updateCurrDst(123686)
updateCurrDst(123790)
Heartbeat CPU 0 instructions: 89000000 cycles: 144489451 heartbeat IPC: 0.32353 cumulative IPC: 0.324118 (Simulation time: 0 hr 4 min 51 sec) 
updateCurrDst(123917)
updateCurrDst(123928)
updateCurrDst(124018)
updateCurrDst(124043)
updateCurrDst(124055)
updateCurrDst(124125)
updateCurrDst(124150)
updateCurrDst(124157)
updateCurrDst(124166)
updateCurrDst(124175)
updateCurrDst(124282)
updateCurrDst(124467)
updateCurrDst(124505)
updateCurrDst(124532)
updateCurrDst(124691)
updateCurrDst(125068)
updateCurrDst(125125)
updateCurrDst(125220)
Heartbeat CPU 0 instructions: 90000001 cycles: 147569298 heartbeat IPC: 0.324692 cumulative IPC: 0.324132 (Simulation time: 0 hr 4 min 54 sec) 
updateCurrDst(125414)
updateCurrDst(125522)
updateCurrDst(125643)
updateCurrDst(125667)
updateCurrDst(125673)
updateCurrDst(125703)
updateCurrDst(125709)
updateCurrDst(125713)
updateCurrDst(125738)
updateCurrDst(125766)
updateCurrDst(125800)
updateCurrDst(125863)
updateCurrDst(125895)
updateCurrDst(126229)
updateCurrDst(126235)
updateCurrDst(126346)
updateCurrDst(126467)
updateCurrDst(126653)
updateCurrDst(126670)
Heartbeat CPU 0 instructions: 91000001 cycles: 150652024 heartbeat IPC: 0.324388 cumulative IPC: 0.324138 (Simulation time: 0 hr 4 min 57 sec) 
updateCurrDst(126849)
updateCurrDst(126858)
updateCurrDst(126905)
updateCurrDst(127138)
updateCurrDst(127160)
updateCurrDst(127315)
updateCurrDst(127357)
updateCurrDst(127374)
updateCurrDst(127676)
updateCurrDst(127799)
updateCurrDst(127877)
updateCurrDst(127884)
updateCurrDst(127922)
updateCurrDst(128012)
updateCurrDst(128073)
updateCurrDst(128100)
updateCurrDst(128235)
Heartbeat CPU 0 instructions: 92000002 cycles: 153743360 heartbeat IPC: 0.323485 cumulative IPC: 0.324123 (Simulation time: 0 hr 5 min 1 sec) 
updateCurrDst(128434)
updateCurrDst(128528)
updateCurrDst(128554)
updateCurrDst(128570)
updateCurrDst(128617)
updateCurrDst(128713)
updateCurrDst(128754)
updateCurrDst(128830)
updateCurrDst(128927)
updateCurrDst(129193)
updateCurrDst(129292)
updateCurrDst(129323)
updateCurrDst(129379)
updateCurrDst(129761)
Heartbeat CPU 0 instructions: 93000000 cycles: 156823475 heartbeat IPC: 0.324663 cumulative IPC: 0.324135 (Simulation time: 0 hr 5 min 4 sec) 
updateCurrDst(129834)
updateCurrDst(129899)
updateCurrDst(130145)
updateCurrDst(130174)
updateCurrDst(130329)
updateCurrDst(130567)
updateCurrDst(130661)
updateCurrDst(130748)
updateCurrDst(130764)
updateCurrDst(130770)
updateCurrDst(130878)
updateCurrDst(130930)
updateCurrDst(131020)
updateCurrDst(131022)
*** Reached end of trace for Core: 0 Repeating trace: ./tracer/pull_u17_k5.xzafter: 93876663
Heartbeat CPU 0 instructions: 94000002 cycles: 159985682 heartbeat IPC: 0.316235 cumulative IPC: 0.323963 (Simulation time: 0 hr 5 min 7 sec) 
Finished CPU 0 instructions: 47000000 cycles: 145078465 cumulative IPC: 0.323963 (Simulation time: 0 hr 5 min 7 sec) 

ChampSim completed all CPUs

Region of Interest Statistics

CPU 0 cumulative IPC: 0.323963 instructions: 47000000 cycles: 145078465

Total ROB STALLS:                   17614906
STLB MISS ROB STALLS:                    826
L1D  LOAD MISS ROB STALLS:            693961  Translation MISS ROB STALLS:             0
L2C  LOAD MISS ROB STALLS:            163575  Translation MISS ROB STALLS:             0
LLC  LOAD MISS ROB STALLS:             57094  Translation MISS ROB STALLS:             0

ITLB TOTAL     ACCESS:           6237702  HIT:    6237675  MISS:         27  HIT %:    99.9996  MISS %: 0.000432852   MPKI: 0.000574468
ITLB LOAD TRANSLATION ACCESS:    6237702  HIT:    6237675  MISS:         27  HIT %:    99.9996  MISS %: 0.000432852   MPKI: 0.000574468
ITLB AVERAGE MISS LATENCY:       220.148 cycles
ITLB RQ ACCESS:     6659271	FORWARD:           0	MERGED:       421568	TO_CACHE:    6237703

DTLB TOTAL     ACCESS:          14187596  HIT:   13809968  MISS:     377628  HIT %:    97.3383  MISS %:    2.66168   MPKI: 8.03464
DTLB LOAD TRANSLATION ACCESS:   14187596  HIT:   13809968  MISS:     377628  HIT %:    97.3383  MISS %:    2.66168   MPKI: 8.03464
DTLB AVERAGE MISS LATENCY:       9.52111 cycles
DTLB RQ ACCESS:    19216647	FORWARD:           0	MERGED:      5029041	TO_CACHE:   14187606

STLB TOTAL     ACCESS:            377655  HIT:     376782  MISS:        873  HIT %:    99.7688  MISS %:   0.231163   MPKI: 0.0185745
STLB LOAD TRANSLATION ACCESS:     377655  HIT:     376782  MISS:        873  HIT %:    99.7688  MISS %:   0.231163   MPKI: 0.0185745
STLB AVERAGE MISS LATENCY:       231.944 cycles
STLB RQ ACCESS:      377655	FORWARD:           0	MERGED:            0	TO_CACHE:     377655

PSCL5 TOTAL     ACCESS:               873  HIT:        873  MISS:          0  HIT %:        100  MISS %:          0   MPKI: 0
PSCL5 LOAD TRANSLATION ACCESS:        873  HIT:        873  MISS:          0  HIT %:        100  MISS %:          0   MPKI: 0

PSCL4 TOTAL     ACCESS:               873  HIT:        873  MISS:          0  HIT %:        100  MISS %:          0   MPKI: 0
PSCL4 LOAD TRANSLATION ACCESS:        873  HIT:        873  MISS:          0  HIT %:        100  MISS %:          0   MPKI: 0

PSCL3 TOTAL     ACCESS:               873  HIT:        873  MISS:          0  HIT %:        100  MISS %:          0   MPKI: 0
PSCL3 LOAD TRANSLATION ACCESS:        873  HIT:        873  MISS:          0  HIT %:        100  MISS %:          0   MPKI: 0

PSCL2 TOTAL     ACCESS:               873  HIT:        871  MISS:          2  HIT %:    99.7709  MISS %:   0.229095   MPKI: 4.25532e-05
PSCL2 LOAD TRANSLATION ACCESS:        873  HIT:        871  MISS:          2  HIT %:    99.7709  MISS %:   0.229095   MPKI: 4.25532e-05

L1D TOTAL     ACCESS:          19216029  HIT:   18521531  MISS:     694498  HIT %:    96.3858  MISS %:    3.61416   MPKI: 14.7766  USED:     111410  UNUSED:     583088
L1D LOAD      ACCESS:           8406411  HIT:    7712404  MISS:     694007  HIT %:    91.7443  MISS %:    8.25569   MPKI: 14.7661  USED:     111390  UNUSED:     583000
L1D RFO       ACCESS:          10809618  HIT:   10809127  MISS:        491  HIT %:    99.9955  MISS %: 0.00454225   MPKI: 0.0104468
L1D PTL1 TRANSLATION ACCESS:          0  HIT:          0  MISS:          0  HIT %:       -nan  MISS %:       -nan   MPKI: 0
L1D PTL2 TRANSLATION ACCESS:          0  HIT:          0  MISS:          0  HIT %:       -nan  MISS %:       -nan   MPKI: 0
L1D PTL3 TRANSLATION ACCESS:          0  HIT:          0  MISS:          0  HIT %:       -nan  MISS %:       -nan   MPKI: 0
L1D PTL4 TRANSLATION ACCESS:          0  HIT:          0  MISS:          0  HIT %:       -nan  MISS %:       -nan   MPKI: 0
L1D PTL5 TRANSLATION ACCESS:          0  HIT:          0  MISS:          0  HIT %:       -nan  MISS %:       -nan   MPKI: 0
L1D TOTAL EVICTIONS:             694498  TRANSLATION EVICTIONS:          0  TRANSLATION EVICTING TRANSALTION:          0  TRANSLATION EVICTING LOAD:          0  LOAD EVICTING TRANSALTION:          0  LOAD EVICTING LOAD:      693996
L1D AVERAGE MISS LATENCY:       31.9828 cycles  AVERAGE LOAD MISS LATENCY:       31.9107 cycles  AVERAGE LOAD TRANSLATION MISS LATENCY:          -nan cycles
L1D RQ ACCESS:    11882188	FORWARD:           0	MERGED:      2383838	TO_CACHE:    8406426
L1D WQ ACCESS:    10817906	FORWARD:     1091924	MERGED:         7685	TO_CACHE:   10810221

L1I TOTAL     ACCESS:           6659262  HIT:    6659119  MISS:        143  HIT %:    99.9979  MISS %: 0.00214739   MPKI: 0.00304255
L1I LOAD      ACCESS:           6659262  HIT:    6659119  MISS:        143  HIT %:    99.9979  MISS %: 0.00214739   MPKI: 0.00304255
L1I AVERAGE MISS LATENCY:       192.357 cycles
L1I RQ ACCESS:    10642224	FORWARD:           0	MERGED:      3982953	TO_CACHE:    6659271

L2C TOTAL     ACCESS:            699160  HIT:     534899  MISS:     164261  HIT %:    76.5059  MISS %:    23.4941   MPKI: 3.49491  USED:      89187  UNUSED:      75074
L2C LOAD      ACCESS:            694150  HIT:     530387  MISS:     163763  HIT %:    76.4081  MISS %:    23.5919   MPKI: 3.48432  USED:      89187  UNUSED:      75074
L2C RFO       ACCESS:               491  HIT:          0  MISS:        491  HIT %:          0  MISS %:        100   MPKI: 0.0104468
L2C WRITEBACK ACCESS:              4519  HIT:       4512  MISS:          7  HIT %:    99.8451  MISS %:   0.154902   MPKI: 0.000148936
L2C PTL1 TRANSLATION ACCESS:          0  HIT:          0  MISS:          0  HIT %:       -nan  MISS %:       -nan   MPKI: 0
L2C PTL2 TRANSLATION ACCESS:          0  HIT:          0  MISS:          0  HIT %:       -nan  MISS %:       -nan   MPKI: 0
L2C PTL3 TRANSLATION ACCESS:          0  HIT:          0  MISS:          0  HIT %:       -nan  MISS %:       -nan   MPKI: 0
L2C PTL4 TRANSLATION ACCESS:          0  HIT:          0  MISS:          0  HIT %:       -nan  MISS %:       -nan   MPKI: 0
L2C PTL5 TRANSLATION ACCESS:          0  HIT:          0  MISS:          0  HIT %:       -nan  MISS %:       -nan   MPKI: 0
L2C TOTAL EVICTIONS:             164261  TRANSLATION EVICTIONS:          0  TRANSLATION EVICTING TRANSALTION:          0  TRANSLATION EVICTING LOAD:          0  LOAD EVICTING TRANSALTION:          0  LOAD EVICTING LOAD:      163763
L2C AVERAGE MISS LATENCY:       71.9585 cycles  AVERAGE LOAD MISS LATENCY:       71.8211 cycles  AVERAGE LOAD TRANSLATION MISS LATENCY:          -nan cycles
L2C RQ ACCESS:      694641	FORWARD:           0	MERGED:            0	TO_CACHE:     694641
L2C WQ ACCESS:        4519	FORWARD:           0	MERGED:            0	TO_CACHE:       4519

LLC TOTAL     ACCESS:            168656  HIT:     110881  MISS:      57775  HIT %:    65.7439  MISS %:    34.2561   MPKI: 1.22926  USED:          0  UNUSED:          0
LLC LOAD      ACCESS:            163763  HIT:     106479  MISS:      57284  HIT %:    65.0202  MISS %:    34.9798   MPKI: 1.21881  USED:          0  UNUSED:          0
LLC RFO       ACCESS:               491  HIT:          0  MISS:        491  HIT %:          0  MISS %:        100   MPKI: 0.0104468
LLC WRITEBACK ACCESS:              4402  HIT:       4402  MISS:          0  HIT %:        100  MISS %:          0   MPKI: 0
LLC PTL1 TRANSLATION ACCESS:          0  HIT:          0  MISS:          0  HIT %:       -nan  MISS %:       -nan   MPKI: 0
LLC PTL2 TRANSLATION ACCESS:          0  HIT:          0  MISS:          0  HIT %:       -nan  MISS %:       -nan   MPKI: 0
LLC PTL3 TRANSLATION ACCESS:          0  HIT:          0  MISS:          0  HIT %:       -nan  MISS %:       -nan   MPKI: 0
LLC PTL4 TRANSLATION ACCESS:          0  HIT:          0  MISS:          0  HIT %:       -nan  MISS %:       -nan   MPKI: 0
LLC PTL5 TRANSLATION ACCESS:          0  HIT:          0  MISS:          0  HIT %:       -nan  MISS %:       -nan   MPKI: 0
LLC TOTAL EVICTIONS:                  0  TRANSLATION EVICTIONS:          0  TRANSLATION EVICTING TRANSALTION:          0  TRANSLATION EVICTING LOAD:          0  LOAD EVICTING TRANSALTION:          0  LOAD EVICTING LOAD:           0
LLC AVERAGE MISS LATENCY:       119.289 cycles  AVERAGE LOAD MISS LATENCY:       119.552 cycles  AVERAGE LOAD TRANSLATION MISS LATENCY:          -nan cycles
LLC RQ ACCESS:      164254	FORWARD:           0	MERGED:            0	TO_CACHE:     164254
LLC WQ ACCESS:        4402	FORWARD:           0	MERGED:            0	TO_CACHE:       4402


RAW hits: 8228889
Loads Generated: 20111074
Loads sent to L1D: 11882188
Stores Generated: 10817902
Stores sent to L1D: 10817906
Major fault: 0 Minor fault: 2178
Allocated PAGES: 2178
IRREG DATA L1D ACCESS: 1310654
L2C ACCESSES: 1198837
L2C MISSES: 204996

DRAM Statistics
 CHANNEL 0
 RQ ROW_BUFFER_HIT:      29361  ROW_BUFFER_MISS:      29287
 DBUS_CONGESTED:          1
 WQ ROW_BUFFER_HIT:         30  ROW_BUFFER_MISS:       4250  FULL:          0

 AVG_CONGESTED_CYCLE: 8

CPU 0 Branch Prediction Accuracy: 98.7928% MPKI: 1.48887 Average ROB Occupancy at Mispredict: 17.2949
Branch types
NOT_BRANCH: 41203252 87.6665%
BRANCH_DIRECT_JUMP: 0 0%
BRANCH_INDIRECT: 769808 1.63789%
BRANCH_CONDITIONAL: 0 0%
BRANCH_DIRECT_CALL: 69683 0.148262%
BRANCH_INDIRECT_CALL: 1953820 4.15706%
BRANCH_RETURN: 2023504 4.30533%
BRANCH_OTHER: 979922 2.08494%

DRAM PAGES: 1048576
Allocated PAGES: 2178
