
*** ChampSim Multicore Out-of-Order Simulator ***

Warmup Instructions: 47000000
Simulation Instructions: 47000000
Number of CPUs: 1
LLC sets: 2048
LLC ways: 16
Off-chip DRAM Size: 4096 MB Channels: 1 Width: 64-bit Data Rate: 6400 MT/s
CPU 0 runs ./tracer/pull_u17_k5.xz
.xz
BTB has LRU replacement policy
ITLB has LRU replacement policy
DTLB has LRU replacement policy
STLB has LRU replacement policy
L1I has LRU replacement policy
L1D has LRU replacement policy
L2C has LRU replacement policy
Initialize DRRIP state for LLC
Heartbeat CPU 0 instructions: 1000001 cycles: 346727 heartbeat IPC: 2.88412 cumulative IPC: 2.88412 (Simulation time: 0 hr 0 min 2 sec) 
Heartbeat CPU 0 instructions: 2000000 cycles: 693435 heartbeat IPC: 2.88427 cumulative IPC: 2.88419 (Simulation time: 0 hr 0 min 5 sec) 
Heartbeat CPU 0 instructions: 3000002 cycles: 1040145 heartbeat IPC: 2.88426 cumulative IPC: 2.88422 (Simulation time: 0 hr 0 min 7 sec) 
PIN_registerGraphs(random_u17_k5.sg,1)
Graphh Number of Nodes: 131072
Heartbeat CPU 0 instructions: 4000002 cycles: 1381287 heartbeat IPC: 2.93133 cumulative IPC: 2.89585 (Simulation time: 0 hr 0 min 10 sec) 
Heartbeat CPU 0 instructions: 5000001 cycles: 1714550 heartbeat IPC: 3.00063 cumulative IPC: 2.91622 (Simulation time: 0 hr 0 min 11 sec) 
PIN_updateRegBaseBound( 94585350295760, 94585350820048)
updateCurrDst(44)
updateCurrDst(105)
updateCurrDst(297)
updateCurrDst(370)
updateCurrDst(380)
Heartbeat CPU 0 instructions: 6000002 cycles: 2041550 heartbeat IPC: 3.05811 cumulative IPC: 2.93894 (Simulation time: 0 hr 0 min 13 sec) 
updateCurrDst(794)
updateCurrDst(810)
updateCurrDst(1000)
updateCurrDst(1106)
updateCurrDst(1162)
updateCurrDst(1168)
updateCurrDst(1256)
updateCurrDst(1333)
updateCurrDst(1520)
updateCurrDst(1537)
updateCurrDst(1567)
updateCurrDst(1587)
updateCurrDst(1636)
updateCurrDst(1648)
updateCurrDst(1787)
updateCurrDst(1789)
Heartbeat CPU 0 instructions: 7000002 cycles: 2355480 heartbeat IPC: 3.18542 cumulative IPC: 2.97179 (Simulation time: 0 hr 0 min 16 sec) 
updateCurrDst(2015)
updateCurrDst(2082)
updateCurrDst(2131)
updateCurrDst(2359)
updateCurrDst(2410)
updateCurrDst(2536)
updateCurrDst(2546)
updateCurrDst(2712)
updateCurrDst(2805)
updateCurrDst(3117)
updateCurrDst(3240)
updateCurrDst(3395)
Heartbeat CPU 0 instructions: 8000002 cycles: 2668915 heartbeat IPC: 3.19045 cumulative IPC: 2.99747 (Simulation time: 0 hr 0 min 19 sec) 
updateCurrDst(3519)
updateCurrDst(3628)
updateCurrDst(3629)
updateCurrDst(3706)
updateCurrDst(3758)
updateCurrDst(3834)
updateCurrDst(3868)
updateCurrDst(3885)
updateCurrDst(4039)
updateCurrDst(4055)
updateCurrDst(4137)
updateCurrDst(4145)
updateCurrDst(4408)
updateCurrDst(4426)
updateCurrDst(4575)
updateCurrDst(4633)
Heartbeat CPU 0 instructions: 9000002 cycles: 2982687 heartbeat IPC: 3.18703 cumulative IPC: 3.01741 (Simulation time: 0 hr 0 min 22 sec) 
updateCurrDst(4982)
updateCurrDst(5074)
updateCurrDst(5149)
updateCurrDst(5255)
updateCurrDst(5772)
updateCurrDst(5773)
updateCurrDst(5786)
updateCurrDst(5904)
updateCurrDst(5981)
updateCurrDst(6345)
Heartbeat CPU 0 instructions: 10000000 cycles: 3296475 heartbeat IPC: 3.18686 cumulative IPC: 3.03354 (Simulation time: 0 hr 0 min 25 sec) 
updateCurrDst(6481)
updateCurrDst(6572)
updateCurrDst(6717)
updateCurrDst(6805)
updateCurrDst(6848)
updateCurrDst(6907)
updateCurrDst(7003)
updateCurrDst(7365)
updateCurrDst(7432)
updateCurrDst(7450)
updateCurrDst(7533)
Heartbeat CPU 0 instructions: 11000000 cycles: 3610358 heartbeat IPC: 3.1859 cumulative IPC: 3.04679 (Simulation time: 0 hr 0 min 28 sec) 
updateCurrDst(7956)
updateCurrDst(7976)
updateCurrDst(8030)
updateCurrDst(8139)
updateCurrDst(8349)
updateCurrDst(8362)
updateCurrDst(8388)
updateCurrDst(8421)
updateCurrDst(8462)
updateCurrDst(8471)
updateCurrDst(8637)
updateCurrDst(8675)
updateCurrDst(8678)
updateCurrDst(8730)
updateCurrDst(8758)
updateCurrDst(8936)
updateCurrDst(8962)
updateCurrDst(9226)
updateCurrDst(9337)
updateCurrDst(9383)
Heartbeat CPU 0 instructions: 12000001 cycles: 3923987 heartbeat IPC: 3.18848 cumulative IPC: 3.05811 (Simulation time: 0 hr 0 min 31 sec) 
updateCurrDst(9454)
updateCurrDst(9719)
updateCurrDst(9778)
updateCurrDst(9909)
updateCurrDst(9983)
updateCurrDst(10064)
updateCurrDst(10178)
updateCurrDst(10304)
updateCurrDst(10329)
updateCurrDst(10576)
updateCurrDst(10626)
updateCurrDst(10646)
updateCurrDst(10784)
updateCurrDst(10825)
updateCurrDst(10839)
updateCurrDst(10855)
Heartbeat CPU 0 instructions: 13000002 cycles: 4237834 heartbeat IPC: 3.18627 cumulative IPC: 3.06761 (Simulation time: 0 hr 0 min 34 sec) 
updateCurrDst(10971)
updateCurrDst(11034)
updateCurrDst(11082)
updateCurrDst(11098)
updateCurrDst(11146)
updateCurrDst(11269)
updateCurrDst(11460)
updateCurrDst(11611)
updateCurrDst(12074)
updateCurrDst(12103)
updateCurrDst(12186)
Heartbeat CPU 0 instructions: 14000001 cycles: 4551413 heartbeat IPC: 3.18899 cumulative IPC: 3.07597 (Simulation time: 0 hr 0 min 37 sec) 
updateCurrDst(12481)
updateCurrDst(12489)
updateCurrDst(12570)
updateCurrDst(12579)
updateCurrDst(12637)
updateCurrDst(12693)
updateCurrDst(12762)
updateCurrDst(12839)
updateCurrDst(12846)
updateCurrDst(12947)
updateCurrDst(12952)
updateCurrDst(13093)
updateCurrDst(13205)
updateCurrDst(13223)
updateCurrDst(13243)
updateCurrDst(13262)
updateCurrDst(13272)
updateCurrDst(13296)
updateCurrDst(13409)
updateCurrDst(13710)
updateCurrDst(13789)
updateCurrDst(13805)
Heartbeat CPU 0 instructions: 15000001 cycles: 4865187 heartbeat IPC: 3.18701 cumulative IPC: 3.08313 (Simulation time: 0 hr 0 min 40 sec) 
updateCurrDst(13971)
updateCurrDst(14027)
updateCurrDst(14042)
updateCurrDst(14103)
updateCurrDst(14625)
updateCurrDst(14692)
updateCurrDst(14715)
Heartbeat CPU 0 instructions: 16000003 cycles: 5178829 heartbeat IPC: 3.18835 cumulative IPC: 3.0895 (Simulation time: 0 hr 0 min 44 sec) 
updateCurrDst(15469)
updateCurrDst(15566)
updateCurrDst(15578)
updateCurrDst(15581)
updateCurrDst(15604)
updateCurrDst(15633)
updateCurrDst(15667)
updateCurrDst(15735)
updateCurrDst(15746)
updateCurrDst(15854)
updateCurrDst(15962)
updateCurrDst(16330)
updateCurrDst(16432)
updateCurrDst(16731)
updateCurrDst(16806)
Heartbeat CPU 0 instructions: 17000002 cycles: 5492383 heartbeat IPC: 3.18924 cumulative IPC: 3.0952 (Simulation time: 0 hr 0 min 47 sec) 
updateCurrDst(16869)
updateCurrDst(17162)
updateCurrDst(17200)
updateCurrDst(17238)
updateCurrDst(17311)
updateCurrDst(17523)
updateCurrDst(17626)
updateCurrDst(17777)
updateCurrDst(18078)
updateCurrDst(18107)
updateCurrDst(18172)
updateCurrDst(18238)
updateCurrDst(18256)
Heartbeat CPU 0 instructions: 18000002 cycles: 5806045 heartbeat IPC: 3.18815 cumulative IPC: 3.10022 (Simulation time: 0 hr 0 min 50 sec) 
updateCurrDst(18602)
updateCurrDst(18618)
updateCurrDst(18691)
updateCurrDst(18708)
updateCurrDst(18714)
updateCurrDst(18797)
updateCurrDst(18896)
updateCurrDst(18923)
updateCurrDst(19011)
updateCurrDst(19040)
updateCurrDst(19046)
updateCurrDst(19146)
updateCurrDst(19478)
updateCurrDst(19500)
updateCurrDst(19614)
Heartbeat CPU 0 instructions: 19000000 cycles: 6119575 heartbeat IPC: 3.18948 cumulative IPC: 3.10479 (Simulation time: 0 hr 0 min 54 sec) 
updateCurrDst(19767)
updateCurrDst(19825)
updateCurrDst(20067)
updateCurrDst(20105)
updateCurrDst(20150)
updateCurrDst(20234)
updateCurrDst(20236)
updateCurrDst(20499)
updateCurrDst(20564)
updateCurrDst(20979)
updateCurrDst(21197)
Heartbeat CPU 0 instructions: 20000000 cycles: 6433122 heartbeat IPC: 3.18931 cumulative IPC: 3.10891 (Simulation time: 0 hr 0 min 57 sec) 
updateCurrDst(21468)
updateCurrDst(21526)
updateCurrDst(21694)
updateCurrDst(21695)
updateCurrDst(22028)
updateCurrDst(22060)
updateCurrDst(22132)
updateCurrDst(22135)
updateCurrDst(22255)
updateCurrDst(22400)
updateCurrDst(22431)
updateCurrDst(22433)
updateCurrDst(22543)
updateCurrDst(22742)
Heartbeat CPU 0 instructions: 21000001 cycles: 6747160 heartbeat IPC: 3.18433 cumulative IPC: 3.11242 (Simulation time: 0 hr 1 min 0 sec) 
updateCurrDst(22753)
updateCurrDst(22852)
updateCurrDst(22892)
updateCurrDst(22982)
updateCurrDst(23055)
updateCurrDst(23145)
updateCurrDst(23155)
updateCurrDst(23189)
updateCurrDst(23418)
updateCurrDst(23447)
updateCurrDst(23502)
updateCurrDst(23625)
updateCurrDst(23660)
updateCurrDst(23683)
updateCurrDst(23998)
updateCurrDst(24136)
updateCurrDst(24147)
updateCurrDst(24184)
Heartbeat CPU 0 instructions: 22000000 cycles: 7060768 heartbeat IPC: 3.18869 cumulative IPC: 3.11581 (Simulation time: 0 hr 1 min 3 sec) 
updateCurrDst(24410)
updateCurrDst(24456)
updateCurrDst(24543)
updateCurrDst(24686)
updateCurrDst(25045)
updateCurrDst(25103)
updateCurrDst(25212)
updateCurrDst(25326)
updateCurrDst(25512)
updateCurrDst(25622)
updateCurrDst(25704)
Heartbeat CPU 0 instructions: 23000003 cycles: 7374538 heartbeat IPC: 3.18706 cumulative IPC: 3.11884 (Simulation time: 0 hr 1 min 6 sec) 
updateCurrDst(25781)
updateCurrDst(25869)
updateCurrDst(26045)
updateCurrDst(26081)
updateCurrDst(26083)
updateCurrDst(26140)
updateCurrDst(26304)
updateCurrDst(26328)
updateCurrDst(26558)
updateCurrDst(26572)
updateCurrDst(26610)
updateCurrDst(26680)
Heartbeat CPU 0 instructions: 24000001 cycles: 7688211 heartbeat IPC: 3.18803 cumulative IPC: 3.12166 (Simulation time: 0 hr 1 min 9 sec) 
updateCurrDst(27261)
updateCurrDst(27334)
updateCurrDst(27409)
updateCurrDst(27569)
updateCurrDst(27611)
updateCurrDst(27649)
updateCurrDst(27735)
updateCurrDst(27745)
updateCurrDst(27924)
updateCurrDst(28186)
updateCurrDst(28268)
updateCurrDst(28295)
updateCurrDst(28581)
updateCurrDst(28630)
Heartbeat CPU 0 instructions: 25000001 cycles: 8001952 heartbeat IPC: 3.18734 cumulative IPC: 3.12424 (Simulation time: 0 hr 1 min 12 sec) 
updateCurrDst(28774)
updateCurrDst(28879)
updateCurrDst(28947)
updateCurrDst(29034)
updateCurrDst(29050)
updateCurrDst(29101)
updateCurrDst(29139)
updateCurrDst(29359)
updateCurrDst(29445)
updateCurrDst(29609)
updateCurrDst(29630)
updateCurrDst(29669)
updateCurrDst(29683)
updateCurrDst(29942)
Heartbeat CPU 0 instructions: 26000003 cycles: 8315661 heartbeat IPC: 3.18767 cumulative IPC: 3.12663 (Simulation time: 0 hr 1 min 15 sec) 
updateCurrDst(30238)
updateCurrDst(30289)
updateCurrDst(30329)
updateCurrDst(30389)
updateCurrDst(30440)
updateCurrDst(30516)
updateCurrDst(30612)
updateCurrDst(30668)
updateCurrDst(30834)
updateCurrDst(30895)
updateCurrDst(31029)
updateCurrDst(31111)
updateCurrDst(31309)
updateCurrDst(31429)
updateCurrDst(31430)
updateCurrDst(31442)
updateCurrDst(31502)
updateCurrDst(31636)
Heartbeat CPU 0 instructions: 27000003 cycles: 8629267 heartbeat IPC: 3.18871 cumulative IPC: 3.12889 (Simulation time: 0 hr 1 min 18 sec) 
updateCurrDst(31763)
updateCurrDst(31794)
updateCurrDst(31819)
updateCurrDst(31877)
updateCurrDst(32150)
updateCurrDst(32183)
updateCurrDst(32378)
updateCurrDst(32426)
updateCurrDst(32511)
updateCurrDst(32567)
updateCurrDst(32827)
updateCurrDst(33113)
Heartbeat CPU 0 instructions: 28000001 cycles: 8943141 heartbeat IPC: 3.18599 cumulative IPC: 3.13089 (Simulation time: 0 hr 1 min 21 sec) 
updateCurrDst(33243)
updateCurrDst(33255)
updateCurrDst(33267)
updateCurrDst(33318)
updateCurrDst(33360)
updateCurrDst(33679)
updateCurrDst(33772)
updateCurrDst(33847)
updateCurrDst(33870)
updateCurrDst(33878)
updateCurrDst(33888)
updateCurrDst(33967)
updateCurrDst(34042)
updateCurrDst(34180)
updateCurrDst(34234)
updateCurrDst(34254)
updateCurrDst(34278)
updateCurrDst(34406)
updateCurrDst(34415)
updateCurrDst(34513)
updateCurrDst(34593)
Heartbeat CPU 0 instructions: 29000002 cycles: 9256966 heartbeat IPC: 3.18649 cumulative IPC: 3.13278 (Simulation time: 0 hr 1 min 25 sec) 
updateCurrDst(34619)
updateCurrDst(34691)
updateCurrDst(34771)
updateCurrDst(34976)
updateCurrDst(35182)
updateCurrDst(35260)
updateCurrDst(35289)
updateCurrDst(35342)
updateCurrDst(35452)
updateCurrDst(35497)
updateCurrDst(35792)
updateCurrDst(35828)
updateCurrDst(35928)
updateCurrDst(35948)
updateCurrDst(35959)
updateCurrDst(35965)
updateCurrDst(36011)
Heartbeat CPU 0 instructions: 30000003 cycles: 9570576 heartbeat IPC: 3.18868 cumulative IPC: 3.13461 (Simulation time: 0 hr 1 min 28 sec) 
updateCurrDst(36402)
updateCurrDst(36453)
updateCurrDst(36478)
updateCurrDst(36708)
updateCurrDst(36804)
updateCurrDst(36826)
updateCurrDst(36837)
updateCurrDst(36856)
updateCurrDst(36882)
updateCurrDst(36890)
updateCurrDst(36902)
updateCurrDst(37040)
updateCurrDst(37044)
updateCurrDst(37053)
updateCurrDst(37219)
updateCurrDst(37295)
updateCurrDst(37413)
Heartbeat CPU 0 instructions: 31000003 cycles: 9884379 heartbeat IPC: 3.18671 cumulative IPC: 3.13626 (Simulation time: 0 hr 1 min 31 sec) 
updateCurrDst(37599)
updateCurrDst(37618)
updateCurrDst(37709)
updateCurrDst(37807)
updateCurrDst(37834)
updateCurrDst(37856)
updateCurrDst(38083)
updateCurrDst(38113)
updateCurrDst(38143)
updateCurrDst(38218)
updateCurrDst(38491)
updateCurrDst(38533)
updateCurrDst(38634)
updateCurrDst(38776)
updateCurrDst(38905)
updateCurrDst(38941)
updateCurrDst(38942)
Heartbeat CPU 0 instructions: 32000000 cycles: 10198104 heartbeat IPC: 3.1875 cumulative IPC: 3.13784 (Simulation time: 0 hr 1 min 34 sec) 
updateCurrDst(39101)
updateCurrDst(39133)
updateCurrDst(39206)
updateCurrDst(39268)
updateCurrDst(39288)
updateCurrDst(39333)
updateCurrDst(39388)
updateCurrDst(39390)
updateCurrDst(39428)
updateCurrDst(39562)
updateCurrDst(39746)
updateCurrDst(39770)
updateCurrDst(39801)
updateCurrDst(39827)
updateCurrDst(39915)
updateCurrDst(39945)
updateCurrDst(39994)
updateCurrDst(40012)
updateCurrDst(40090)
updateCurrDst(40121)
updateCurrDst(40301)
updateCurrDst(40421)
updateCurrDst(40483)
Heartbeat CPU 0 instructions: 33000000 cycles: 10511750 heartbeat IPC: 3.18831 cumulative IPC: 3.13934 (Simulation time: 0 hr 1 min 37 sec) 
updateCurrDst(40564)
updateCurrDst(41076)
updateCurrDst(41097)
updateCurrDst(41138)
updateCurrDst(41224)
updateCurrDst(41272)
updateCurrDst(41343)
updateCurrDst(41418)
updateCurrDst(41469)
updateCurrDst(41519)
updateCurrDst(41597)
updateCurrDst(41924)
updateCurrDst(41925)
updateCurrDst(41967)
Heartbeat CPU 0 instructions: 34000001 cycles: 10825579 heartbeat IPC: 3.18645 cumulative IPC: 3.14071 (Simulation time: 0 hr 1 min 40 sec) 
updateCurrDst(42098)
updateCurrDst(42125)
updateCurrDst(42153)
updateCurrDst(42172)
updateCurrDst(42227)
updateCurrDst(42254)
updateCurrDst(42426)
updateCurrDst(42517)
updateCurrDst(42547)
updateCurrDst(42590)
updateCurrDst(42632)
updateCurrDst(42703)
updateCurrDst(42859)
updateCurrDst(42863)
updateCurrDst(42864)
updateCurrDst(42887)
updateCurrDst(42903)
updateCurrDst(42919)
updateCurrDst(43015)
updateCurrDst(43028)
updateCurrDst(43038)
updateCurrDst(43045)
updateCurrDst(43050)
updateCurrDst(43051)
updateCurrDst(43290)
updateCurrDst(43416)
Heartbeat CPU 0 instructions: 35000003 cycles: 11139403 heartbeat IPC: 3.18651 cumulative IPC: 3.142 (Simulation time: 0 hr 1 min 43 sec) 
updateCurrDst(43547)
updateCurrDst(43570)
updateCurrDst(43688)
updateCurrDst(43730)
updateCurrDst(43821)
updateCurrDst(43912)
updateCurrDst(43955)
updateCurrDst(43985)
updateCurrDst(44179)
updateCurrDst(44235)
updateCurrDst(44252)
updateCurrDst(44280)
updateCurrDst(44394)
updateCurrDst(44414)
updateCurrDst(44546)
updateCurrDst(44638)
updateCurrDst(44665)
updateCurrDst(44719)
updateCurrDst(44733)
updateCurrDst(44767)
updateCurrDst(44902)
updateCurrDst(44999)
Heartbeat CPU 0 instructions: 36000003 cycles: 11453163 heartbeat IPC: 3.18715 cumulative IPC: 3.14324 (Simulation time: 0 hr 1 min 46 sec) 
updateCurrDst(45114)
updateCurrDst(45245)
updateCurrDst(45260)
updateCurrDst(45287)
updateCurrDst(45314)
updateCurrDst(45436)
updateCurrDst(45484)
updateCurrDst(45661)
updateCurrDst(45666)
updateCurrDst(45773)
updateCurrDst(45789)
updateCurrDst(45991)
updateCurrDst(46111)
updateCurrDst(46140)
updateCurrDst(46193)
updateCurrDst(46221)
updateCurrDst(46229)
updateCurrDst(46246)
updateCurrDst(46397)
updateCurrDst(46408)
updateCurrDst(46446)
Heartbeat CPU 0 instructions: 37000002 cycles: 11766699 heartbeat IPC: 3.18942 cumulative IPC: 3.14447 (Simulation time: 0 hr 1 min 49 sec) 
updateCurrDst(46570)
updateCurrDst(46577)
updateCurrDst(46696)
updateCurrDst(46772)
updateCurrDst(47019)
updateCurrDst(47106)
updateCurrDst(47312)
updateCurrDst(47514)
updateCurrDst(47521)
updateCurrDst(47573)
updateCurrDst(47578)
updateCurrDst(47591)
updateCurrDst(47629)
updateCurrDst(47833)
updateCurrDst(47907)
Heartbeat CPU 0 instructions: 38000003 cycles: 12080307 heartbeat IPC: 3.1887 cumulative IPC: 3.14562 (Simulation time: 0 hr 1 min 52 sec) 
updateCurrDst(48093)
updateCurrDst(48437)
updateCurrDst(48546)
updateCurrDst(48553)
updateCurrDst(48576)
updateCurrDst(48627)
updateCurrDst(48650)
updateCurrDst(48945)
updateCurrDst(49154)
updateCurrDst(49264)
updateCurrDst(49282)
Heartbeat CPU 0 instructions: 39000003 cycles: 12394377 heartbeat IPC: 3.184 cumulative IPC: 3.14659 (Simulation time: 0 hr 1 min 55 sec) 
updateCurrDst(49494)
updateCurrDst(49502)
updateCurrDst(49550)
updateCurrDst(49575)
updateCurrDst(49804)
updateCurrDst(49876)
updateCurrDst(49923)
updateCurrDst(50191)
updateCurrDst(50429)
updateCurrDst(50436)
updateCurrDst(50939)
Heartbeat CPU 0 instructions: 40000003 cycles: 12708460 heartbeat IPC: 3.18387 cumulative IPC: 3.14751 (Simulation time: 0 hr 1 min 58 sec) 
updateCurrDst(51156)
updateCurrDst(51185)
updateCurrDst(51206)
updateCurrDst(51322)
updateCurrDst(51349)
updateCurrDst(51530)
updateCurrDst(51547)
updateCurrDst(51670)
updateCurrDst(51835)
updateCurrDst(51839)
updateCurrDst(51894)
updateCurrDst(51948)
updateCurrDst(52228)
updateCurrDst(52340)
updateCurrDst(52359)
updateCurrDst(52380)
Heartbeat CPU 0 instructions: 41000000 cycles: 13022239 heartbeat IPC: 3.18695 cumulative IPC: 3.14846 (Simulation time: 0 hr 2 min 1 sec) 
updateCurrDst(52492)
updateCurrDst(52839)
updateCurrDst(52944)
updateCurrDst(52978)
updateCurrDst(53062)
updateCurrDst(53186)
updateCurrDst(53253)
updateCurrDst(53280)
updateCurrDst(53421)
updateCurrDst(53461)
updateCurrDst(53523)
updateCurrDst(53539)
updateCurrDst(53601)
updateCurrDst(53695)
updateCurrDst(53731)
Heartbeat CPU 0 instructions: 42000002 cycles: 13335915 heartbeat IPC: 3.18801 cumulative IPC: 3.14939 (Simulation time: 0 hr 2 min 4 sec) 
updateCurrDst(54009)
updateCurrDst(54126)
updateCurrDst(54213)
updateCurrDst(54287)
updateCurrDst(54428)
updateCurrDst(54538)
updateCurrDst(54553)
updateCurrDst(54616)
updateCurrDst(54814)
updateCurrDst(54830)
updateCurrDst(54936)
updateCurrDst(55058)
updateCurrDst(55357)
updateCurrDst(55407)
Heartbeat CPU 0 instructions: 43000001 cycles: 13649686 heartbeat IPC: 3.18703 cumulative IPC: 3.15026 (Simulation time: 0 hr 2 min 7 sec) 
updateCurrDst(55445)
updateCurrDst(55473)
updateCurrDst(55494)
updateCurrDst(55578)
updateCurrDst(55585)
updateCurrDst(55664)
updateCurrDst(55827)
updateCurrDst(55881)
updateCurrDst(55978)
updateCurrDst(56157)
updateCurrDst(56220)
updateCurrDst(56229)
updateCurrDst(56415)
updateCurrDst(56623)
updateCurrDst(56691)
updateCurrDst(56702)
updateCurrDst(56719)
updateCurrDst(56834)
Heartbeat CPU 0 instructions: 44000000 cycles: 13963474 heartbeat IPC: 3.18686 cumulative IPC: 3.15108 (Simulation time: 0 hr 2 min 10 sec) 
updateCurrDst(56955)
updateCurrDst(56966)
updateCurrDst(57029)
updateCurrDst(57055)
updateCurrDst(57087)
updateCurrDst(57100)
updateCurrDst(57188)
updateCurrDst(57271)
updateCurrDst(57281)
updateCurrDst(57446)
updateCurrDst(57624)
updateCurrDst(57819)
updateCurrDst(58141)
updateCurrDst(58354)
Heartbeat CPU 0 instructions: 45000002 cycles: 14277122 heartbeat IPC: 3.18829 cumulative IPC: 3.1519 (Simulation time: 0 hr 2 min 12 sec) 
updateCurrDst(58685)
updateCurrDst(58692)
updateCurrDst(58945)
updateCurrDst(58981)
updateCurrDst(59167)
updateCurrDst(59249)
updateCurrDst(59361)
updateCurrDst(59414)
updateCurrDst(59626)
updateCurrDst(59721)
updateCurrDst(59799)
Heartbeat CPU 0 instructions: 46000003 cycles: 14590821 heartbeat IPC: 3.18777 cumulative IPC: 3.15267 (Simulation time: 0 hr 2 min 15 sec) 
updateCurrDst(60081)
updateCurrDst(60189)
updateCurrDst(60293)
updateCurrDst(60313)
updateCurrDst(60391)
updateCurrDst(60436)
updateCurrDst(60634)
updateCurrDst(60693)
updateCurrDst(60714)
updateCurrDst(60718)
updateCurrDst(60889)
updateCurrDst(60902)
updateCurrDst(60926)
Heartbeat CPU 0 instructions: 47000002 cycles: 14904719 heartbeat IPC: 3.18575 cumulative IPC: 3.15336 (Simulation time: 0 hr 2 min 18 sec) 

Warmup complete CPU 0 instructions: 47000002 cycles: 14904719 (Simulation time: 0 hr 2 min 18 sec) 

updateCurrDst(61427)
updateCurrDst(61449)
updateCurrDst(61556)
updateCurrDst(61770)
updateCurrDst(62050)
updateCurrDst(62259)
updateCurrDst(62261)
updateCurrDst(62267)
updateCurrDst(62280)
updateCurrDst(62310)
updateCurrDst(62430)
updateCurrDst(62496)
updateCurrDst(62587)
updateCurrDst(62615)
updateCurrDst(62638)
updateCurrDst(62699)
updateCurrDst(62820)
updateCurrDst(62823)
updateCurrDst(62848)
Heartbeat CPU 0 instructions: 48000000 cycles: 17963325 heartbeat IPC: 0.326946 cumulative IPC: 0.326946 (Simulation time: 0 hr 2 min 22 sec) 
updateCurrDst(63002)
updateCurrDst(63047)
updateCurrDst(63234)
updateCurrDst(63253)
updateCurrDst(63290)
updateCurrDst(63310)
updateCurrDst(63380)
updateCurrDst(63453)
updateCurrDst(63520)
updateCurrDst(63927)
updateCurrDst(63951)
updateCurrDst(63957)
updateCurrDst(63993)
updateCurrDst(64018)
updateCurrDst(64228)
updateCurrDst(64237)
updateCurrDst(64317)
updateCurrDst(64372)
updateCurrDst(64374)
Heartbeat CPU 0 instructions: 49000002 cycles: 21020508 heartbeat IPC: 0.327099 cumulative IPC: 0.327022 (Simulation time: 0 hr 2 min 25 sec) 
updateCurrDst(64534)
updateCurrDst(64541)
updateCurrDst(64671)
updateCurrDst(64743)
updateCurrDst(64760)
updateCurrDst(64812)
updateCurrDst(64910)
updateCurrDst(65039)
updateCurrDst(65181)
updateCurrDst(65195)
updateCurrDst(65281)
updateCurrDst(65374)
updateCurrDst(65438)
updateCurrDst(65534)
updateCurrDst(65641)
Heartbeat CPU 0 instructions: 50000002 cycles: 24079184 heartbeat IPC: 0.326939 cumulative IPC: 0.326995 (Simulation time: 0 hr 2 min 28 sec) 
updateCurrDst(65907)
updateCurrDst(66041)
updateCurrDst(66307)
updateCurrDst(66507)
updateCurrDst(66523)
updateCurrDst(66543)
updateCurrDst(66715)
updateCurrDst(66823)
updateCurrDst(66824)
updateCurrDst(66851)
updateCurrDst(66980)
updateCurrDst(67078)
updateCurrDst(67303)
Heartbeat CPU 0 instructions: 51000003 cycles: 27136420 heartbeat IPC: 0.327093 cumulative IPC: 0.327019 (Simulation time: 0 hr 2 min 32 sec) 
updateCurrDst(67459)
updateCurrDst(67657)
updateCurrDst(67667)
updateCurrDst(67684)
updateCurrDst(67738)
updateCurrDst(67761)
updateCurrDst(67835)
updateCurrDst(67954)
updateCurrDst(68438)
updateCurrDst(68475)
updateCurrDst(68543)
Heartbeat CPU 0 instructions: 52000002 cycles: 30195905 heartbeat IPC: 0.326852 cumulative IPC: 0.326986 (Simulation time: 0 hr 2 min 35 sec) 
updateCurrDst(68963)
updateCurrDst(69175)
updateCurrDst(69714)
updateCurrDst(69728)
updateCurrDst(69740)
updateCurrDst(69769)
updateCurrDst(69960)
updateCurrDst(70068)
updateCurrDst(70176)
updateCurrDst(70233)
Heartbeat CPU 0 instructions: 53000001 cycles: 33239536 heartbeat IPC: 0.328555 cumulative IPC: 0.327246 (Simulation time: 0 hr 2 min 38 sec) 
updateCurrDst(70356)
updateCurrDst(70476)
updateCurrDst(70617)
updateCurrDst(70723)
updateCurrDst(71048)
updateCurrDst(71105)
updateCurrDst(71125)
updateCurrDst(71234)
updateCurrDst(71293)
updateCurrDst(71328)
updateCurrDst(71457)
updateCurrDst(71477)
updateCurrDst(71551)
updateCurrDst(71743)
Heartbeat CPU 0 instructions: 54000000 cycles: 36297351 heartbeat IPC: 0.327031 cumulative IPC: 0.327215 (Simulation time: 0 hr 2 min 41 sec) 
updateCurrDst(71858)
updateCurrDst(71927)
updateCurrDst(72180)
updateCurrDst(72312)
updateCurrDst(72398)
updateCurrDst(72425)
updateCurrDst(72459)
updateCurrDst(72555)
updateCurrDst(72654)
updateCurrDst(72818)
updateCurrDst(73026)
updateCurrDst(73175)
updateCurrDst(73254)
updateCurrDst(73276)
Heartbeat CPU 0 instructions: 55000000 cycles: 39356272 heartbeat IPC: 0.326913 cumulative IPC: 0.327177 (Simulation time: 0 hr 2 min 45 sec) 
updateCurrDst(73334)
updateCurrDst(73380)
updateCurrDst(73406)
updateCurrDst(73494)
updateCurrDst(73831)
updateCurrDst(73908)
updateCurrDst(73987)
updateCurrDst(74023)
updateCurrDst(74055)
updateCurrDst(74363)
updateCurrDst(74444)
updateCurrDst(74512)
updateCurrDst(74730)
updateCurrDst(74744)
Heartbeat CPU 0 instructions: 56000002 cycles: 42388910 heartbeat IPC: 0.329747 cumulative IPC: 0.327461 (Simulation time: 0 hr 2 min 48 sec) 
updateCurrDst(74817)
updateCurrDst(74967)
updateCurrDst(75046)
updateCurrDst(75115)
updateCurrDst(75211)
updateCurrDst(75256)
updateCurrDst(75431)
updateCurrDst(75445)
updateCurrDst(75614)
updateCurrDst(75739)
updateCurrDst(75874)
updateCurrDst(75909)
updateCurrDst(76110)
Heartbeat CPU 0 instructions: 57000000 cycles: 45406073 heartbeat IPC: 0.331437 cumulative IPC: 0.327854 (Simulation time: 0 hr 2 min 51 sec) 
updateCurrDst(76269)
updateCurrDst(76290)
updateCurrDst(76304)
updateCurrDst(76359)
updateCurrDst(76392)
updateCurrDst(76426)
updateCurrDst(76474)
updateCurrDst(76553)
updateCurrDst(76568)
updateCurrDst(76667)
updateCurrDst(76689)
updateCurrDst(76789)
updateCurrDst(76854)
updateCurrDst(76934)
updateCurrDst(77102)
updateCurrDst(77190)
updateCurrDst(77235)
updateCurrDst(77537)
updateCurrDst(77617)
updateCurrDst(77710)
Heartbeat CPU 0 instructions: 58000001 cycles: 48423165 heartbeat IPC: 0.331445 cumulative IPC: 0.328177 (Simulation time: 0 hr 2 min 55 sec) 
updateCurrDst(78139)
updateCurrDst(78145)
updateCurrDst(78173)
updateCurrDst(78198)
updateCurrDst(78302)
updateCurrDst(78359)
updateCurrDst(78396)
updateCurrDst(78973)
updateCurrDst(79058)
updateCurrDst(79095)
updateCurrDst(79113)
Heartbeat CPU 0 instructions: 59000000 cycles: 51450817 heartbeat IPC: 0.330289 cumulative IPC: 0.328352 (Simulation time: 0 hr 2 min 58 sec) 
updateCurrDst(79269)
updateCurrDst(79318)
updateCurrDst(79321)
updateCurrDst(79398)
updateCurrDst(79419)
updateCurrDst(79435)
updateCurrDst(79651)
updateCurrDst(79800)
updateCurrDst(79804)
updateCurrDst(79848)
updateCurrDst(79977)
updateCurrDst(80036)
updateCurrDst(80490)
updateCurrDst(80526)
updateCurrDst(80565)
updateCurrDst(80594)
Heartbeat CPU 0 instructions: 60000002 cycles: 54472630 heartbeat IPC: 0.330928 cumulative IPC: 0.328549 (Simulation time: 0 hr 3 min 1 sec) 
updateCurrDst(80746)
updateCurrDst(80757)
updateCurrDst(81007)
updateCurrDst(81042)
updateCurrDst(81277)
updateCurrDst(81305)
updateCurrDst(81321)
updateCurrDst(81333)
updateCurrDst(81486)
updateCurrDst(81542)
updateCurrDst(81572)
updateCurrDst(81620)
updateCurrDst(81698)
updateCurrDst(81755)
updateCurrDst(82147)
Heartbeat CPU 0 instructions: 61000000 cycles: 57490905 heartbeat IPC: 0.331314 cumulative IPC: 0.328745 (Simulation time: 0 hr 3 min 4 sec) 
updateCurrDst(82419)
updateCurrDst(82438)
updateCurrDst(82504)
updateCurrDst(82514)
updateCurrDst(82591)
updateCurrDst(82621)
updateCurrDst(82667)
updateCurrDst(82717)
updateCurrDst(82719)
updateCurrDst(82723)
updateCurrDst(82732)
updateCurrDst(83392)
Heartbeat CPU 0 instructions: 62000000 cycles: 60503149 heartbeat IPC: 0.331978 cumulative IPC: 0.328959 (Simulation time: 0 hr 3 min 8 sec) 
updateCurrDst(83816)
updateCurrDst(83981)
updateCurrDst(83985)
updateCurrDst(84003)
updateCurrDst(84020)
updateCurrDst(84094)
updateCurrDst(84139)
updateCurrDst(84195)
updateCurrDst(84330)
updateCurrDst(84406)
updateCurrDst(84719)
updateCurrDst(84735)
updateCurrDst(84809)
updateCurrDst(84830)
updateCurrDst(84923)
updateCurrDst(84959)
updateCurrDst(84972)
updateCurrDst(85000)
updateCurrDst(85038)
updateCurrDst(85103)
updateCurrDst(85106)
Heartbeat CPU 0 instructions: 63000000 cycles: 63515305 heartbeat IPC: 0.331988 cumulative IPC: 0.329146 (Simulation time: 0 hr 3 min 11 sec) 
updateCurrDst(85191)
updateCurrDst(85465)
updateCurrDst(85547)
updateCurrDst(85642)
updateCurrDst(85646)
updateCurrDst(85704)
updateCurrDst(85797)
updateCurrDst(86071)
updateCurrDst(86073)
updateCurrDst(86084)
updateCurrDst(86278)
updateCurrDst(86412)
updateCurrDst(86457)
updateCurrDst(86638)
Heartbeat CPU 0 instructions: 64000002 cycles: 66529620 heartbeat IPC: 0.331751 cumulative IPC: 0.329298 (Simulation time: 0 hr 3 min 15 sec) 
updateCurrDst(86798)
updateCurrDst(86806)
updateCurrDst(86893)
updateCurrDst(87102)
updateCurrDst(87115)
updateCurrDst(87433)
updateCurrDst(87455)
updateCurrDst(87688)
updateCurrDst(87703)
updateCurrDst(87832)
updateCurrDst(87978)
updateCurrDst(88002)
updateCurrDst(88116)
Heartbeat CPU 0 instructions: 65000002 cycles: 69541848 heartbeat IPC: 0.33198 cumulative IPC: 0.329446 (Simulation time: 0 hr 3 min 18 sec) 
updateCurrDst(88242)
updateCurrDst(88348)
updateCurrDst(88468)
updateCurrDst(88531)
updateCurrDst(88677)
updateCurrDst(88749)
updateCurrDst(88889)
updateCurrDst(89031)
updateCurrDst(89174)
updateCurrDst(89176)
updateCurrDst(89193)
updateCurrDst(89235)
updateCurrDst(89237)
updateCurrDst(89264)
updateCurrDst(89359)
updateCurrDst(89363)
updateCurrDst(89465)
updateCurrDst(89553)
Heartbeat CPU 0 instructions: 66000000 cycles: 72551024 heartbeat IPC: 0.332316 cumulative IPC: 0.329596 (Simulation time: 0 hr 3 min 21 sec) 
updateCurrDst(89662)
updateCurrDst(89710)
updateCurrDst(89738)
updateCurrDst(89741)
updateCurrDst(89750)
updateCurrDst(89844)
updateCurrDst(89870)
updateCurrDst(89969)
updateCurrDst(90123)
updateCurrDst(90238)
updateCurrDst(90280)
updateCurrDst(90351)
updateCurrDst(90418)
updateCurrDst(90477)
updateCurrDst(90627)
updateCurrDst(90727)
updateCurrDst(90740)
updateCurrDst(90796)
updateCurrDst(90878)
updateCurrDst(90880)
updateCurrDst(90949)
updateCurrDst(91004)
updateCurrDst(91042)
updateCurrDst(91071)
Heartbeat CPU 0 instructions: 67000000 cycles: 75561577 heartbeat IPC: 0.332165 cumulative IPC: 0.329724 (Simulation time: 0 hr 3 min 24 sec) 
updateCurrDst(91630)
updateCurrDst(91752)
updateCurrDst(91846)
updateCurrDst(91856)
updateCurrDst(91878)
updateCurrDst(91888)
updateCurrDst(92027)
updateCurrDst(92038)
updateCurrDst(92134)
updateCurrDst(92194)
updateCurrDst(92216)
updateCurrDst(92450)
updateCurrDst(92476)
updateCurrDst(92493)
updateCurrDst(92538)
updateCurrDst(92568)
updateCurrDst(92596)
Heartbeat CPU 0 instructions: 68000001 cycles: 78570905 heartbeat IPC: 0.3323 cumulative IPC: 0.329845 (Simulation time: 0 hr 3 min 28 sec) 
updateCurrDst(92704)
updateCurrDst(92825)
updateCurrDst(92834)
updateCurrDst(92899)
updateCurrDst(92980)
updateCurrDst(93038)
updateCurrDst(93133)
updateCurrDst(93137)
updateCurrDst(93195)
updateCurrDst(93342)
updateCurrDst(93463)
updateCurrDst(93473)
updateCurrDst(93716)
updateCurrDst(93852)
updateCurrDst(93922)
updateCurrDst(93937)
Heartbeat CPU 0 instructions: 69000000 cycles: 81581842 heartbeat IPC: 0.332122 cumulative IPC: 0.329948 (Simulation time: 0 hr 3 min 31 sec) 
updateCurrDst(94495)
updateCurrDst(94601)
updateCurrDst(94671)
updateCurrDst(94808)
updateCurrDst(94833)
updateCurrDst(94858)
updateCurrDst(94958)
updateCurrDst(95186)
updateCurrDst(95313)
updateCurrDst(95511)
updateCurrDst(95545)
Heartbeat CPU 0 instructions: 70000000 cycles: 84593806 heartbeat IPC: 0.332009 cumulative IPC: 0.330037 (Simulation time: 0 hr 3 min 34 sec) 
updateCurrDst(95677)
updateCurrDst(95704)
updateCurrDst(95733)
updateCurrDst(95846)
updateCurrDst(95861)
updateCurrDst(95993)
updateCurrDst(96063)
updateCurrDst(96075)
updateCurrDst(96215)
updateCurrDst(96243)
updateCurrDst(96378)
updateCurrDst(96479)
updateCurrDst(96542)
updateCurrDst(96547)
updateCurrDst(96684)
updateCurrDst(96706)
updateCurrDst(97031)
Heartbeat CPU 0 instructions: 71000002 cycles: 87604857 heartbeat IPC: 0.332111 cumulative IPC: 0.330123 (Simulation time: 0 hr 3 min 37 sec) 
updateCurrDst(97199)
updateCurrDst(97348)
updateCurrDst(97384)
updateCurrDst(97456)
updateCurrDst(97736)
updateCurrDst(97842)
updateCurrDst(97878)
updateCurrDst(98040)
updateCurrDst(98149)
updateCurrDst(98150)
updateCurrDst(98193)
updateCurrDst(98500)
Heartbeat CPU 0 instructions: 72000002 cycles: 90615757 heartbeat IPC: 0.332127 cumulative IPC: 0.330203 (Simulation time: 0 hr 3 min 40 sec) 
updateCurrDst(98569)
updateCurrDst(98631)
updateCurrDst(98676)
updateCurrDst(99079)
updateCurrDst(99081)
updateCurrDst(99114)
updateCurrDst(99252)
updateCurrDst(99402)
updateCurrDst(99482)
updateCurrDst(99646)
updateCurrDst(99663)
updateCurrDst(99709)
updateCurrDst(99794)
updateCurrDst(99879)
Heartbeat CPU 0 instructions: 73000000 cycles: 93627022 heartbeat IPC: 0.332086 cumulative IPC: 0.330275 (Simulation time: 0 hr 3 min 44 sec) 
updateCurrDst(100053)
updateCurrDst(100101)
updateCurrDst(100110)
updateCurrDst(100171)
updateCurrDst(100357)
updateCurrDst(100533)
updateCurrDst(100558)
updateCurrDst(100576)
updateCurrDst(100659)
updateCurrDst(100672)
updateCurrDst(100858)
updateCurrDst(100891)
updateCurrDst(101087)
updateCurrDst(101162)
updateCurrDst(101211)
updateCurrDst(101227)
updateCurrDst(101359)
updateCurrDst(101373)
updateCurrDst(101435)
updateCurrDst(101460)
updateCurrDst(101500)
Heartbeat CPU 0 instructions: 74000002 cycles: 96637518 heartbeat IPC: 0.332172 cumulative IPC: 0.330345 (Simulation time: 0 hr 3 min 47 sec) 
updateCurrDst(101546)
updateCurrDst(101781)
updateCurrDst(101833)
updateCurrDst(101881)
updateCurrDst(101960)
updateCurrDst(101997)
updateCurrDst(102090)
updateCurrDst(102153)
updateCurrDst(102220)
updateCurrDst(102535)
updateCurrDst(102564)
updateCurrDst(102707)
updateCurrDst(102792)
updateCurrDst(102848)
updateCurrDst(103010)
Heartbeat CPU 0 instructions: 75000000 cycles: 99647016 heartbeat IPC: 0.332281 cumulative IPC: 0.330413 (Simulation time: 0 hr 3 min 50 sec) 
updateCurrDst(103049)
updateCurrDst(103075)
updateCurrDst(103236)
updateCurrDst(103462)
updateCurrDst(103504)
updateCurrDst(103753)
updateCurrDst(103767)
updateCurrDst(103784)
updateCurrDst(103978)
updateCurrDst(104138)
updateCurrDst(104232)
updateCurrDst(104245)
updateCurrDst(104280)
updateCurrDst(104360)
updateCurrDst(104419)
updateCurrDst(104475)
Heartbeat CPU 0 instructions: 76000003 cycles: 102657422 heartbeat IPC: 0.332182 cumulative IPC: 0.330474 (Simulation time: 0 hr 3 min 53 sec) 
updateCurrDst(104558)
updateCurrDst(104740)
updateCurrDst(105142)
updateCurrDst(105383)
updateCurrDst(105419)
updateCurrDst(105618)
updateCurrDst(105938)
updateCurrDst(105944)
Heartbeat CPU 0 instructions: 77000000 cycles: 105668934 heartbeat IPC: 0.332058 cumulative IPC: 0.330527 (Simulation time: 0 hr 3 min 57 sec) 
updateCurrDst(106039)
updateCurrDst(106190)
updateCurrDst(106441)
updateCurrDst(106457)
updateCurrDst(106550)
updateCurrDst(106603)
updateCurrDst(106672)
updateCurrDst(106679)
updateCurrDst(106775)
updateCurrDst(106945)
updateCurrDst(106955)
updateCurrDst(106992)
updateCurrDst(107025)
updateCurrDst(107209)
updateCurrDst(107388)
updateCurrDst(107398)
updateCurrDst(107408)
Heartbeat CPU 0 instructions: 78000001 cycles: 108680178 heartbeat IPC: 0.332089 cumulative IPC: 0.330577 (Simulation time: 0 hr 4 min 0 sec) 
updateCurrDst(107588)
updateCurrDst(107660)
updateCurrDst(107664)
updateCurrDst(107693)
updateCurrDst(107732)
updateCurrDst(107785)
updateCurrDst(107863)
updateCurrDst(108022)
updateCurrDst(108031)
updateCurrDst(108042)
updateCurrDst(108172)
updateCurrDst(108192)
updateCurrDst(108414)
updateCurrDst(108464)
updateCurrDst(108717)
Heartbeat CPU 0 instructions: 79000000 cycles: 111695658 heartbeat IPC: 0.331622 cumulative IPC: 0.330609 (Simulation time: 0 hr 4 min 3 sec) 
updateCurrDst(109154)
updateCurrDst(109208)
updateCurrDst(109259)
updateCurrDst(109382)
updateCurrDst(109422)
updateCurrDst(109515)
updateCurrDst(109543)
updateCurrDst(109563)
updateCurrDst(109579)
updateCurrDst(109598)
updateCurrDst(109668)
updateCurrDst(109697)
updateCurrDst(109950)
updateCurrDst(109994)
updateCurrDst(109999)
updateCurrDst(110002)
updateCurrDst(110058)
updateCurrDst(110087)
updateCurrDst(110112)
updateCurrDst(110137)
updateCurrDst(110281)
updateCurrDst(110340)
updateCurrDst(110424)
Heartbeat CPU 0 instructions: 80000001 cycles: 114707373 heartbeat IPC: 0.332037 cumulative IPC: 0.330653 (Simulation time: 0 hr 4 min 7 sec) 
updateCurrDst(110694)
updateCurrDst(110757)
updateCurrDst(110816)
updateCurrDst(110865)
updateCurrDst(110883)
updateCurrDst(110913)
updateCurrDst(110943)
updateCurrDst(111050)
updateCurrDst(111098)
updateCurrDst(111111)
updateCurrDst(111153)
updateCurrDst(111303)
updateCurrDst(111583)
updateCurrDst(111646)
updateCurrDst(111708)
updateCurrDst(111735)
updateCurrDst(111766)
Heartbeat CPU 0 instructions: 81000000 cycles: 117719250 heartbeat IPC: 0.332019 cumulative IPC: 0.330693 (Simulation time: 0 hr 4 min 10 sec) 
updateCurrDst(111997)
updateCurrDst(112197)
updateCurrDst(112262)
updateCurrDst(112384)
updateCurrDst(112767)
updateCurrDst(112918)
updateCurrDst(112944)
Heartbeat CPU 0 instructions: 82000000 cycles: 120733739 heartbeat IPC: 0.331731 cumulative IPC: 0.330722 (Simulation time: 0 hr 4 min 14 sec) 
updateCurrDst(113509)
updateCurrDst(113582)
updateCurrDst(113678)
updateCurrDst(113694)
updateCurrDst(113797)
updateCurrDst(113869)
updateCurrDst(113971)
updateCurrDst(113990)
updateCurrDst(114058)
updateCurrDst(114115)
updateCurrDst(114175)
updateCurrDst(114201)
updateCurrDst(114243)
updateCurrDst(114299)
updateCurrDst(114366)
updateCurrDst(114476)
updateCurrDst(114483)
updateCurrDst(114517)
updateCurrDst(114535)
updateCurrDst(114539)
updateCurrDst(114546)
updateCurrDst(114593)
updateCurrDst(114719)
updateCurrDst(114832)
Heartbeat CPU 0 instructions: 83000000 cycles: 123746873 heartbeat IPC: 0.33188 cumulative IPC: 0.330754 (Simulation time: 0 hr 4 min 17 sec) 
updateCurrDst(115283)
updateCurrDst(115364)
updateCurrDst(115412)
updateCurrDst(115630)
updateCurrDst(115904)
updateCurrDst(116097)
updateCurrDst(116180)
updateCurrDst(116392)
Heartbeat CPU 0 instructions: 84000003 cycles: 126756748 heartbeat IPC: 0.332241 cumulative IPC: 0.330794 (Simulation time: 0 hr 4 min 20 sec) 
updateCurrDst(116511)
updateCurrDst(116634)
updateCurrDst(116650)
updateCurrDst(116733)
updateCurrDst(116841)
updateCurrDst(116868)
updateCurrDst(117033)
updateCurrDst(117038)
updateCurrDst(117040)
updateCurrDst(117042)
updateCurrDst(117141)
updateCurrDst(117279)
updateCurrDst(117288)
updateCurrDst(117305)
updateCurrDst(117343)
updateCurrDst(117346)
updateCurrDst(117475)
updateCurrDst(117610)
updateCurrDst(117681)
updateCurrDst(117708)
Heartbeat CPU 0 instructions: 85000001 cycles: 129767170 heartbeat IPC: 0.332179 cumulative IPC: 0.33083 (Simulation time: 0 hr 4 min 23 sec) 
updateCurrDst(117977)
updateCurrDst(117991)
updateCurrDst(118091)
updateCurrDst(118199)
updateCurrDst(118201)
updateCurrDst(118213)
updateCurrDst(118234)
updateCurrDst(118313)
updateCurrDst(118349)
updateCurrDst(118417)
updateCurrDst(118761)
updateCurrDst(118812)
updateCurrDst(118887)
updateCurrDst(119068)
updateCurrDst(119337)
updateCurrDst(119374)
Heartbeat CPU 0 instructions: 86000001 cycles: 132779645 heartbeat IPC: 0.331953 cumulative IPC: 0.330859 (Simulation time: 0 hr 4 min 27 sec) 
updateCurrDst(119514)
updateCurrDst(119564)
updateCurrDst(119584)
updateCurrDst(119611)
updateCurrDst(119664)
updateCurrDst(119682)
updateCurrDst(119945)
updateCurrDst(119968)
updateCurrDst(120141)
updateCurrDst(120266)
updateCurrDst(120330)
updateCurrDst(120687)
Heartbeat CPU 0 instructions: 87000002 cycles: 135792168 heartbeat IPC: 0.331948 cumulative IPC: 0.330886 (Simulation time: 0 hr 4 min 30 sec) 
updateCurrDst(121219)
updateCurrDst(121272)
updateCurrDst(121290)
updateCurrDst(121388)
updateCurrDst(121468)
updateCurrDst(121477)
updateCurrDst(121717)
updateCurrDst(121847)
updateCurrDst(122063)
updateCurrDst(122325)
Heartbeat CPU 0 instructions: 88000000 cycles: 138804228 heartbeat IPC: 0.331998 cumulative IPC: 0.330913 (Simulation time: 0 hr 4 min 33 sec) 
updateCurrDst(122416)
updateCurrDst(122440)
updateCurrDst(122502)
updateCurrDst(122692)
updateCurrDst(122710)
updateCurrDst(122748)
updateCurrDst(122780)
updateCurrDst(122835)
updateCurrDst(122837)
updateCurrDst(122840)
updateCurrDst(122858)
updateCurrDst(122869)
updateCurrDst(122988)
updateCurrDst(123161)
updateCurrDst(123164)
updateCurrDst(123194)
updateCurrDst(123261)
updateCurrDst(123374)
updateCurrDst(123406)
updateCurrDst(123603)
updateCurrDst(123634)
updateCurrDst(123635)
updateCurrDst(123676)
updateCurrDst(123720)
updateCurrDst(123729)
updateCurrDst(123845)
Heartbeat CPU 0 instructions: 89000000 cycles: 141816466 heartbeat IPC: 0.331979 cumulative IPC: 0.330939 (Simulation time: 0 hr 4 min 36 sec) 
updateCurrDst(123928)
updateCurrDst(123967)
updateCurrDst(124083)
updateCurrDst(124113)
updateCurrDst(124232)
updateCurrDst(124271)
updateCurrDst(124403)
updateCurrDst(124537)
updateCurrDst(124544)
updateCurrDst(124888)
updateCurrDst(124899)
updateCurrDst(124923)
updateCurrDst(124985)
updateCurrDst(125053)
updateCurrDst(125071)
updateCurrDst(125157)
updateCurrDst(125283)
updateCurrDst(125314)
Heartbeat CPU 0 instructions: 90000001 cycles: 144826627 heartbeat IPC: 0.332208 cumulative IPC: 0.330968 (Simulation time: 0 hr 4 min 40 sec) 
updateCurrDst(125366)
updateCurrDst(125678)
updateCurrDst(125770)
updateCurrDst(125938)
updateCurrDst(125951)
updateCurrDst(126043)
updateCurrDst(126123)
updateCurrDst(126143)
updateCurrDst(126158)
updateCurrDst(126447)
updateCurrDst(126488)
updateCurrDst(126732)
Heartbeat CPU 0 instructions: 91000001 cycles: 147839550 heartbeat IPC: 0.331904 cumulative IPC: 0.330989 (Simulation time: 0 hr 4 min 43 sec) 
updateCurrDst(127123)
updateCurrDst(127211)
updateCurrDst(127353)
updateCurrDst(127359)
updateCurrDst(127414)
updateCurrDst(127432)
updateCurrDst(127476)
updateCurrDst(127633)
updateCurrDst(127671)
updateCurrDst(127860)
updateCurrDst(127886)
updateCurrDst(127952)
updateCurrDst(127991)
updateCurrDst(128111)
updateCurrDst(128117)
updateCurrDst(128187)
updateCurrDst(128238)
Heartbeat CPU 0 instructions: 92000002 cycles: 150851714 heartbeat IPC: 0.331988 cumulative IPC: 0.331011 (Simulation time: 0 hr 4 min 46 sec) 
updateCurrDst(128371)
updateCurrDst(128497)
updateCurrDst(128750)
updateCurrDst(128879)
updateCurrDst(128932)
updateCurrDst(129124)
updateCurrDst(129141)
updateCurrDst(129273)
updateCurrDst(129291)
updateCurrDst(129529)
updateCurrDst(129692)
Heartbeat CPU 0 instructions: 93000000 cycles: 153863335 heartbeat IPC: 0.332046 cumulative IPC: 0.331034 (Simulation time: 0 hr 4 min 49 sec) 
updateCurrDst(129862)
updateCurrDst(129885)
updateCurrDst(130005)
updateCurrDst(130435)
updateCurrDst(130610)
updateCurrDst(130818)
updateCurrDst(130852)
updateCurrDst(130914)
*** Reached end of trace for Core: 0 Repeating trace: ./tracer/pull_u17_k5.xzafter: 93876663
Heartbeat CPU 0 instructions: 94000002 cycles: 156952214 heartbeat IPC: 0.323743 cumulative IPC: 0.330875 (Simulation time: 0 hr 4 min 53 sec) 
Finished CPU 0 instructions: 47000000 cycles: 142047495 cumulative IPC: 0.330875 (Simulation time: 0 hr 4 min 53 sec) 

ChampSim completed all CPUs

Region of Interest Statistics

CPU 0 cumulative IPC: 0.330875 instructions: 47000000 cycles: 142047495

Total ROB STALLS:                   17645715
STLB MISS ROB STALLS:                    828
L1D  LOAD MISS ROB STALLS:            693954  Translation MISS ROB STALLS:             0
L2C  LOAD MISS ROB STALLS:            163566  Translation MISS ROB STALLS:             0
LLC  LOAD MISS ROB STALLS:             45895  Translation MISS ROB STALLS:             0

ITLB TOTAL     ACCESS:           6237702  HIT:    6237675  MISS:         27  HIT %:    99.9996  MISS %: 0.000432852   MPKI: 0.000574468
ITLB LOAD TRANSLATION ACCESS:    6237702  HIT:    6237675  MISS:         27  HIT %:    99.9996  MISS %: 0.000432852   MPKI: 0.000574468
ITLB AVERAGE MISS LATENCY:       216.444 cycles
ITLB RQ ACCESS:     6659271	FORWARD:           0	MERGED:       421568	TO_CACHE:    6237703

DTLB TOTAL     ACCESS:          14187590  HIT:   13809962  MISS:     377628  HIT %:    97.3383  MISS %:    2.66168   MPKI: 8.03464
DTLB LOAD TRANSLATION ACCESS:   14187590  HIT:   13809962  MISS:     377628  HIT %:    97.3383  MISS %:    2.66168   MPKI: 8.03464
DTLB AVERAGE MISS LATENCY:        9.5213 cycles
DTLB RQ ACCESS:    19222597	FORWARD:           0	MERGED:      5034999	TO_CACHE:   14187598

STLB TOTAL     ACCESS:            377655  HIT:     376782  MISS:        873  HIT %:    99.7688  MISS %:   0.231163   MPKI: 0.0185745
STLB LOAD TRANSLATION ACCESS:     377655  HIT:     376782  MISS:        873  HIT %:    99.7688  MISS %:   0.231163   MPKI: 0.0185745
STLB AVERAGE MISS LATENCY:        231.91 cycles
STLB RQ ACCESS:      377655	FORWARD:           0	MERGED:            0	TO_CACHE:     377655

PSCL5 TOTAL     ACCESS:               873  HIT:        873  MISS:          0  HIT %:        100  MISS %:          0   MPKI: 0
PSCL5 LOAD TRANSLATION ACCESS:        873  HIT:        873  MISS:          0  HIT %:        100  MISS %:          0   MPKI: 0

PSCL4 TOTAL     ACCESS:               873  HIT:        873  MISS:          0  HIT %:        100  MISS %:          0   MPKI: 0
PSCL4 LOAD TRANSLATION ACCESS:        873  HIT:        873  MISS:          0  HIT %:        100  MISS %:          0   MPKI: 0

PSCL3 TOTAL     ACCESS:               873  HIT:        873  MISS:          0  HIT %:        100  MISS %:          0   MPKI: 0
PSCL3 LOAD TRANSLATION ACCESS:        873  HIT:        873  MISS:          0  HIT %:        100  MISS %:          0   MPKI: 0

PSCL2 TOTAL     ACCESS:               873  HIT:        871  MISS:          2  HIT %:    99.7709  MISS %:   0.229095   MPKI: 4.25532e-05
PSCL2 LOAD TRANSLATION ACCESS:        873  HIT:        871  MISS:          2  HIT %:    99.7709  MISS %:   0.229095   MPKI: 4.25532e-05

L1D TOTAL     ACCESS:          19221987  HIT:   18527489  MISS:     694498  HIT %:     96.387  MISS %:    3.61304   MPKI: 14.7766  USED:     111410  UNUSED:     583088
L1D LOAD      ACCESS:           8406414  HIT:    7712407  MISS:     694007  HIT %:    91.7443  MISS %:    8.25568   MPKI: 14.7661  USED:     111390  UNUSED:     583000
L1D RFO       ACCESS:          10815573  HIT:   10815082  MISS:        491  HIT %:    99.9955  MISS %: 0.00453975   MPKI: 0.0104468
L1D PTL1 TRANSLATION ACCESS:          0  HIT:          0  MISS:          0  HIT %:       -nan  MISS %:       -nan   MPKI: 0
L1D PTL2 TRANSLATION ACCESS:          0  HIT:          0  MISS:          0  HIT %:       -nan  MISS %:       -nan   MPKI: 0
L1D PTL3 TRANSLATION ACCESS:          0  HIT:          0  MISS:          0  HIT %:       -nan  MISS %:       -nan   MPKI: 0
L1D PTL4 TRANSLATION ACCESS:          0  HIT:          0  MISS:          0  HIT %:       -nan  MISS %:       -nan   MPKI: 0
L1D PTL5 TRANSLATION ACCESS:          0  HIT:          0  MISS:          0  HIT %:       -nan  MISS %:       -nan   MPKI: 0
L1D TOTAL EVICTIONS:             694498  TRANSLATION EVICTIONS:          0  TRANSLATION EVICTING TRANSALTION:          0  TRANSLATION EVICTING LOAD:          0  LOAD EVICTING TRANSALTION:          0  LOAD EVICTING LOAD:      693996
L1D AVERAGE MISS LATENCY:       27.4821 cycles  AVERAGE LOAD MISS LATENCY:       27.4097 cycles  AVERAGE LOAD TRANSLATION MISS LATENCY:          -nan cycles
L1D RQ ACCESS:    11882190	FORWARD:           0	MERGED:      2383840	TO_CACHE:    8406426
L1D WQ ACCESS:    10817906	FORWARD:     1091924	MERGED:         1735	TO_CACHE:   10816171

L1I TOTAL     ACCESS:           6659262  HIT:    6659119  MISS:        143  HIT %:    99.9979  MISS %: 0.00214739   MPKI: 0.00304255
L1I LOAD      ACCESS:           6659262  HIT:    6659119  MISS:        143  HIT %:    99.9979  MISS %: 0.00214739   MPKI: 0.00304255
L1I AVERAGE MISS LATENCY:       191.657 cycles
L1I RQ ACCESS:    10642224	FORWARD:           0	MERGED:      3982953	TO_CACHE:    6659271

L2C TOTAL     ACCESS:            699160  HIT:     534899  MISS:     164261  HIT %:    76.5059  MISS %:    23.4941   MPKI: 3.49491  USED:      89187  UNUSED:      75074
L2C LOAD      ACCESS:            694150  HIT:     530387  MISS:     163763  HIT %:    76.4081  MISS %:    23.5919   MPKI: 3.48432  USED:      89187  UNUSED:      75074
L2C RFO       ACCESS:               491  HIT:          0  MISS:        491  HIT %:          0  MISS %:        100   MPKI: 0.0104468
L2C WRITEBACK ACCESS:              4519  HIT:       4512  MISS:          7  HIT %:    99.8451  MISS %:   0.154902   MPKI: 0.000148936
L2C PTL1 TRANSLATION ACCESS:          0  HIT:          0  MISS:          0  HIT %:       -nan  MISS %:       -nan   MPKI: 0
L2C PTL2 TRANSLATION ACCESS:          0  HIT:          0  MISS:          0  HIT %:       -nan  MISS %:       -nan   MPKI: 0
L2C PTL3 TRANSLATION ACCESS:          0  HIT:          0  MISS:          0  HIT %:       -nan  MISS %:       -nan   MPKI: 0
L2C PTL4 TRANSLATION ACCESS:          0  HIT:          0  MISS:          0  HIT %:       -nan  MISS %:       -nan   MPKI: 0
L2C PTL5 TRANSLATION ACCESS:          0  HIT:          0  MISS:          0  HIT %:       -nan  MISS %:       -nan   MPKI: 0
L2C TOTAL EVICTIONS:             164261  TRANSLATION EVICTIONS:          0  TRANSLATION EVICTING TRANSALTION:          0  TRANSLATION EVICTING LOAD:          0  LOAD EVICTING TRANSALTION:          0  LOAD EVICTING LOAD:      163763
L2C AVERAGE MISS LATENCY:       52.9291 cycles  AVERAGE LOAD MISS LATENCY:       52.7456 cycles  AVERAGE LOAD TRANSLATION MISS LATENCY:          -nan cycles
L2C RQ ACCESS:      694641	FORWARD:           0	MERGED:            0	TO_CACHE:     694641
L2C WQ ACCESS:        4519	FORWARD:           0	MERGED:            0	TO_CACHE:       4519

LLC TOTAL     ACCESS:            168656  HIT:     122084  MISS:      46572  HIT %:    72.3864  MISS %:    27.6136   MPKI: 0.990894  USED:          0  UNUSED:          0
LLC LOAD      ACCESS:            163763  HIT:     117702  MISS:      46061  HIT %:    71.8734  MISS %:    28.1266   MPKI: 0.980021  USED:          0  UNUSED:          0
LLC RFO       ACCESS:               491  HIT:          7  MISS:        484  HIT %:    1.42566  MISS %:    98.5743   MPKI: 0.0102979
LLC WRITEBACK ACCESS:              4402  HIT:       4375  MISS:         27  HIT %:    99.3866  MISS %:   0.613358   MPKI: 0.000574468
LLC PTL1 TRANSLATION ACCESS:          0  HIT:          0  MISS:          0  HIT %:       -nan  MISS %:       -nan   MPKI: 0
LLC PTL2 TRANSLATION ACCESS:          0  HIT:          0  MISS:          0  HIT %:       -nan  MISS %:       -nan   MPKI: 0
LLC PTL3 TRANSLATION ACCESS:          0  HIT:          0  MISS:          0  HIT %:       -nan  MISS %:       -nan   MPKI: 0
LLC PTL4 TRANSLATION ACCESS:          0  HIT:          0  MISS:          0  HIT %:       -nan  MISS %:       -nan   MPKI: 0
LLC PTL5 TRANSLATION ACCESS:          0  HIT:          0  MISS:          0  HIT %:       -nan  MISS %:       -nan   MPKI: 0
LLC TOTAL EVICTIONS:                  0  TRANSLATION EVICTIONS:          0  TRANSLATION EVICTING TRANSALTION:          0  TRANSLATION EVICTING LOAD:          0  LOAD EVICTING TRANSALTION:          0  LOAD EVICTING LOAD:           0
LLC AVERAGE MISS LATENCY:        80.869 cycles  AVERAGE LOAD MISS LATENCY:       80.8635 cycles  AVERAGE LOAD TRANSLATION MISS LATENCY:          -nan cycles
LLC RQ ACCESS:      164254	FORWARD:           0	MERGED:            0	TO_CACHE:     164254
LLC WQ ACCESS:        4402	FORWARD:           0	MERGED:            0	TO_CACHE:       4402


RAW hits: 8228887
Loads Generated: 20111074
Loads sent to L1D: 11882190
Stores Generated: 10817902
Stores sent to L1D: 10817906
Major fault: 0 Minor fault: 2178
Allocated PAGES: 2178
IRREG DATA L1D ACCESS: 1310654
L2C ACCESSES: 1198837
L2C MISSES: 204996
Total LLC accesses: 329156
Total Irreg accesses: 204941

DRAM Statistics
 CHANNEL 0
 RQ ROW_BUFFER_HIT:      41519  ROW_BUFFER_MISS:       5899
 DBUS_CONGESTED:          0
 WQ ROW_BUFFER_HIT:          0  ROW_BUFFER_MISS:         66  FULL:          0

 AVG_CONGESTED_CYCLE: -

CPU 0 Branch Prediction Accuracy: 98.7928% MPKI: 1.48887 Average ROB Occupancy at Mispredict: 17.2948
Branch types
NOT_BRANCH: 41203252 87.6665%
BRANCH_DIRECT_JUMP: 0 0%
BRANCH_INDIRECT: 769808 1.63789%
BRANCH_CONDITIONAL: 0 0%
BRANCH_DIRECT_CALL: 69683 0.148262%
BRANCH_INDIRECT_CALL: 1953820 4.15706%
BRANCH_RETURN: 2023504 4.30533%
BRANCH_OTHER: 979922 2.08494%

DRAM PAGES: 1048576
Allocated PAGES: 2178
