
*** ChampSim Multicore Out-of-Order Simulator ***

Warmup Instructions: 47000000
Simulation Instructions: 47000000
Number of CPUs: 1
LLC sets: 2048
LLC ways: 16
Off-chip DRAM Size: 4096 MB Channels: 1 Width: 64-bit Data Rate: 6400 MT/s
CPU 0 runs ./tracer/pull_u17_k5.xz
.xz
BTB has LRU replacement policy
ITLB has LRU replacement policy
DTLB has LRU replacement policy
STLB has LRU replacement policy
L1I has LRU replacement policy
L1D has LRU replacement policy
L2C has LRU replacement policy
LLC has LRU replacement policy
Heartbeat CPU 0 instructions: 1000001 cycles: 346727 heartbeat IPC: 2.88412 cumulative IPC: 2.88412 (Simulation time: 0 hr 0 min 3 sec) 
Heartbeat CPU 0 instructions: 2000000 cycles: 693435 heartbeat IPC: 2.88427 cumulative IPC: 2.88419 (Simulation time: 0 hr 0 min 6 sec) 
Heartbeat CPU 0 instructions: 3000002 cycles: 1040145 heartbeat IPC: 2.88426 cumulative IPC: 2.88422 (Simulation time: 0 hr 0 min 9 sec) 
PIN_registerGraphs(random_u17_k5.sg,1)
Graphh Number of Nodes: 131072
Heartbeat CPU 0 instructions: 4000002 cycles: 1381287 heartbeat IPC: 2.93133 cumulative IPC: 2.89585 (Simulation time: 0 hr 0 min 12 sec) 
Heartbeat CPU 0 instructions: 5000001 cycles: 1714550 heartbeat IPC: 3.00063 cumulative IPC: 2.91622 (Simulation time: 0 hr 0 min 13 sec) 
PIN_updateRegBaseBound( 94585350295760, 94585350820048)
updateCurrDst(90)
updateCurrDst(167)
updateCurrDst(177)
updateCurrDst(351)
updateCurrDst(372)
updateCurrDst(410)
updateCurrDst(429)
updateCurrDst(467)
Heartbeat CPU 0 instructions: 6000002 cycles: 2041550 heartbeat IPC: 3.05811 cumulative IPC: 2.93894 (Simulation time: 0 hr 0 min 16 sec) 
updateCurrDst(620)
updateCurrDst(688)
updateCurrDst(835)
updateCurrDst(931)
updateCurrDst(972)
updateCurrDst(1127)
updateCurrDst(1159)
updateCurrDst(1290)
updateCurrDst(1358)
updateCurrDst(1413)
updateCurrDst(1490)
updateCurrDst(1586)
updateCurrDst(1597)
updateCurrDst(1656)
updateCurrDst(1677)
updateCurrDst(1709)
Heartbeat CPU 0 instructions: 7000002 cycles: 2355478 heartbeat IPC: 3.18544 cumulative IPC: 2.9718 (Simulation time: 0 hr 0 min 19 sec) 
updateCurrDst(2197)
updateCurrDst(2206)
updateCurrDst(2225)
updateCurrDst(2238)
updateCurrDst(2426)
updateCurrDst(2504)
updateCurrDst(2628)
updateCurrDst(2656)
updateCurrDst(2670)
updateCurrDst(2684)
updateCurrDst(2897)
updateCurrDst(3049)
updateCurrDst(3057)
updateCurrDst(3155)
updateCurrDst(3191)
Heartbeat CPU 0 instructions: 8000002 cycles: 2668913 heartbeat IPC: 3.19045 cumulative IPC: 2.99748 (Simulation time: 0 hr 0 min 22 sec) 
updateCurrDst(3486)
updateCurrDst(3562)
updateCurrDst(3768)
updateCurrDst(3800)
updateCurrDst(3849)
updateCurrDst(4047)
updateCurrDst(4064)
updateCurrDst(4077)
updateCurrDst(4163)
updateCurrDst(4173)
updateCurrDst(4362)
updateCurrDst(4587)
updateCurrDst(4734)
updateCurrDst(4825)
updateCurrDst(4937)
Heartbeat CPU 0 instructions: 9000002 cycles: 2982683 heartbeat IPC: 3.18705 cumulative IPC: 3.01742 (Simulation time: 0 hr 0 min 26 sec) 
updateCurrDst(5140)
updateCurrDst(5153)
updateCurrDst(5227)
updateCurrDst(5234)
updateCurrDst(5259)
updateCurrDst(5406)
updateCurrDst(5453)
updateCurrDst(5758)
updateCurrDst(5784)
updateCurrDst(5866)
updateCurrDst(6245)
updateCurrDst(6423)
Heartbeat CPU 0 instructions: 10000000 cycles: 3296470 heartbeat IPC: 3.18687 cumulative IPC: 3.03355 (Simulation time: 0 hr 0 min 29 sec) 
updateCurrDst(6473)
updateCurrDst(6527)
updateCurrDst(6761)
updateCurrDst(6868)
updateCurrDst(7007)
updateCurrDst(7018)
updateCurrDst(7317)
updateCurrDst(7325)
updateCurrDst(7379)
updateCurrDst(7390)
updateCurrDst(7612)
updateCurrDst(7848)
updateCurrDst(7890)
Heartbeat CPU 0 instructions: 11000000 cycles: 3610352 heartbeat IPC: 3.18591 cumulative IPC: 3.04679 (Simulation time: 0 hr 0 min 32 sec) 
updateCurrDst(8109)
updateCurrDst(8230)
updateCurrDst(8295)
updateCurrDst(8314)
updateCurrDst(8361)
updateCurrDst(8589)
updateCurrDst(8710)
updateCurrDst(8755)
updateCurrDst(8777)
updateCurrDst(8833)
updateCurrDst(8849)
updateCurrDst(8905)
updateCurrDst(9087)
updateCurrDst(9150)
updateCurrDst(9152)
updateCurrDst(9328)
updateCurrDst(9360)
Heartbeat CPU 0 instructions: 12000001 cycles: 3923978 heartbeat IPC: 3.18851 cumulative IPC: 3.05812 (Simulation time: 0 hr 0 min 36 sec) 
updateCurrDst(9577)
updateCurrDst(9594)
updateCurrDst(9635)
updateCurrDst(9671)
updateCurrDst(9678)
updateCurrDst(9772)
updateCurrDst(10193)
updateCurrDst(10367)
updateCurrDst(10377)
updateCurrDst(10729)
updateCurrDst(10841)
updateCurrDst(10862)
Heartbeat CPU 0 instructions: 13000002 cycles: 4237825 heartbeat IPC: 3.18627 cumulative IPC: 3.06761 (Simulation time: 0 hr 0 min 39 sec) 
updateCurrDst(10942)
updateCurrDst(11082)
updateCurrDst(11167)
updateCurrDst(11253)
updateCurrDst(11386)
updateCurrDst(11392)
updateCurrDst(11416)
updateCurrDst(11485)
updateCurrDst(11547)
updateCurrDst(11605)
updateCurrDst(11857)
updateCurrDst(11884)
updateCurrDst(11989)
updateCurrDst(12240)
updateCurrDst(12259)
updateCurrDst(12266)
Heartbeat CPU 0 instructions: 14000001 cycles: 4551403 heartbeat IPC: 3.189 cumulative IPC: 3.07597 (Simulation time: 0 hr 0 min 42 sec) 
updateCurrDst(12369)
updateCurrDst(12403)
updateCurrDst(12446)
updateCurrDst(12531)
updateCurrDst(12616)
updateCurrDst(12652)
updateCurrDst(12682)
updateCurrDst(12692)
updateCurrDst(12771)
updateCurrDst(12894)
updateCurrDst(12927)
updateCurrDst(13248)
updateCurrDst(13269)
updateCurrDst(13360)
updateCurrDst(13411)
updateCurrDst(13581)
updateCurrDst(13640)
updateCurrDst(13655)
updateCurrDst(13840)
Heartbeat CPU 0 instructions: 15000001 cycles: 4865176 heartbeat IPC: 3.18702 cumulative IPC: 3.08314 (Simulation time: 0 hr 0 min 46 sec) 
updateCurrDst(13878)
updateCurrDst(13939)
updateCurrDst(13973)
updateCurrDst(14377)
updateCurrDst(14413)
updateCurrDst(14450)
updateCurrDst(14484)
updateCurrDst(14536)
updateCurrDst(14631)
updateCurrDst(14750)
updateCurrDst(14802)
updateCurrDst(14958)
updateCurrDst(14977)
updateCurrDst(14978)
updateCurrDst(15116)
updateCurrDst(15137)
updateCurrDst(15151)
updateCurrDst(15232)
updateCurrDst(15253)
updateCurrDst(15300)
Heartbeat CPU 0 instructions: 16000003 cycles: 5178814 heartbeat IPC: 3.1884 cumulative IPC: 3.08951 (Simulation time: 0 hr 0 min 49 sec) 
updateCurrDst(15382)
updateCurrDst(15403)
updateCurrDst(15412)
updateCurrDst(15434)
updateCurrDst(15448)
updateCurrDst(15562)
updateCurrDst(15818)
updateCurrDst(15822)
updateCurrDst(15916)
updateCurrDst(15925)
updateCurrDst(16118)
updateCurrDst(16357)
updateCurrDst(16378)
updateCurrDst(16476)
updateCurrDst(16523)
updateCurrDst(16633)
Heartbeat CPU 0 instructions: 17000002 cycles: 5492368 heartbeat IPC: 3.18924 cumulative IPC: 3.0952 (Simulation time: 0 hr 0 min 52 sec) 
updateCurrDst(17016)
updateCurrDst(17281)
updateCurrDst(17461)
updateCurrDst(17470)
updateCurrDst(17594)
updateCurrDst(17871)
updateCurrDst(17943)
updateCurrDst(18217)
updateCurrDst(18269)
updateCurrDst(18290)
Heartbeat CPU 0 instructions: 18000002 cycles: 5806029 heartbeat IPC: 3.18816 cumulative IPC: 3.10023 (Simulation time: 0 hr 0 min 56 sec) 
updateCurrDst(18297)
updateCurrDst(18330)
updateCurrDst(18627)
updateCurrDst(18629)
updateCurrDst(18632)
updateCurrDst(18758)
updateCurrDst(18846)
updateCurrDst(18961)
updateCurrDst(19027)
updateCurrDst(19056)
updateCurrDst(19078)
updateCurrDst(19115)
updateCurrDst(19147)
updateCurrDst(19223)
updateCurrDst(19224)
updateCurrDst(19250)
updateCurrDst(19319)
updateCurrDst(19471)
updateCurrDst(19516)
updateCurrDst(19583)
updateCurrDst(19669)
updateCurrDst(19763)
Heartbeat CPU 0 instructions: 19000000 cycles: 6119559 heartbeat IPC: 3.18948 cumulative IPC: 3.1048 (Simulation time: 0 hr 0 min 59 sec) 
updateCurrDst(19776)
updateCurrDst(19864)
updateCurrDst(20136)
updateCurrDst(20179)
updateCurrDst(20241)
updateCurrDst(20626)
updateCurrDst(20933)
updateCurrDst(21085)
updateCurrDst(21107)
Heartbeat CPU 0 instructions: 20000000 cycles: 6433102 heartbeat IPC: 3.18936 cumulative IPC: 3.10892 (Simulation time: 0 hr 1 min 2 sec) 
updateCurrDst(21323)
updateCurrDst(21841)
updateCurrDst(22222)
updateCurrDst(22377)
updateCurrDst(22432)
updateCurrDst(22678)
Heartbeat CPU 0 instructions: 21000001 cycles: 6747157 heartbeat IPC: 3.18416 cumulative IPC: 3.11242 (Simulation time: 0 hr 1 min 6 sec) 
updateCurrDst(22797)
updateCurrDst(22810)
updateCurrDst(22882)
updateCurrDst(23014)
updateCurrDst(23142)
updateCurrDst(23587)
updateCurrDst(23839)
updateCurrDst(23956)
Heartbeat CPU 0 instructions: 22000000 cycles: 7060864 heartbeat IPC: 3.18768 cumulative IPC: 3.11577 (Simulation time: 0 hr 1 min 9 sec) 
updateCurrDst(24246)
updateCurrDst(24301)
updateCurrDst(24406)
updateCurrDst(24544)
updateCurrDst(24868)
updateCurrDst(24949)
updateCurrDst(24978)
updateCurrDst(25017)
updateCurrDst(25171)
updateCurrDst(25281)
updateCurrDst(25379)
updateCurrDst(25443)
updateCurrDst(25667)
Heartbeat CPU 0 instructions: 23000003 cycles: 7374734 heartbeat IPC: 3.18604 cumulative IPC: 3.11876 (Simulation time: 0 hr 1 min 12 sec) 
updateCurrDst(25885)
updateCurrDst(25999)
updateCurrDst(26072)
updateCurrDst(26124)
updateCurrDst(26187)
updateCurrDst(26401)
updateCurrDst(26435)
updateCurrDst(26504)
updateCurrDst(26674)
updateCurrDst(26689)
updateCurrDst(26739)
updateCurrDst(27002)
updateCurrDst(27156)
Heartbeat CPU 0 instructions: 24000001 cycles: 7688506 heartbeat IPC: 3.18702 cumulative IPC: 3.12154 (Simulation time: 0 hr 1 min 16 sec) 
updateCurrDst(27353)
updateCurrDst(27376)
updateCurrDst(27448)
updateCurrDst(27501)
updateCurrDst(27572)
updateCurrDst(27668)
updateCurrDst(27690)
updateCurrDst(27691)
updateCurrDst(27747)
updateCurrDst(27829)
updateCurrDst(27873)
updateCurrDst(27937)
updateCurrDst(28024)
updateCurrDst(28249)
updateCurrDst(28271)
updateCurrDst(28313)
updateCurrDst(28353)
updateCurrDst(28401)
updateCurrDst(28456)
updateCurrDst(28460)
updateCurrDst(28491)
updateCurrDst(28538)
updateCurrDst(28650)
updateCurrDst(28679)
Heartbeat CPU 0 instructions: 25000001 cycles: 8002344 heartbeat IPC: 3.18636 cumulative IPC: 3.12408 (Simulation time: 0 hr 1 min 19 sec) 
updateCurrDst(28699)
updateCurrDst(28860)
updateCurrDst(28908)
updateCurrDst(29068)
updateCurrDst(29120)
updateCurrDst(29291)
updateCurrDst(29338)
updateCurrDst(29626)
updateCurrDst(29797)
updateCurrDst(29892)
updateCurrDst(30108)
updateCurrDst(30160)
Heartbeat CPU 0 instructions: 26000003 cycles: 8316147 heartbeat IPC: 3.18672 cumulative IPC: 3.12645 (Simulation time: 0 hr 1 min 22 sec) 
updateCurrDst(30221)
updateCurrDst(30237)
updateCurrDst(30258)
updateCurrDst(30276)
updateCurrDst(30312)
updateCurrDst(30352)
updateCurrDst(30562)
updateCurrDst(30700)
updateCurrDst(30782)
updateCurrDst(31100)
updateCurrDst(31323)
updateCurrDst(31361)
updateCurrDst(31427)
updateCurrDst(31486)
Heartbeat CPU 0 instructions: 27000003 cycles: 8629854 heartbeat IPC: 3.18769 cumulative IPC: 3.12867 (Simulation time: 0 hr 1 min 26 sec) 
updateCurrDst(31725)
updateCurrDst(31762)
updateCurrDst(31896)
updateCurrDst(31919)
updateCurrDst(32159)
updateCurrDst(32321)
updateCurrDst(32453)
updateCurrDst(32487)
updateCurrDst(32497)
updateCurrDst(32521)
updateCurrDst(32563)
updateCurrDst(32589)
updateCurrDst(32704)
updateCurrDst(32781)
updateCurrDst(32863)
updateCurrDst(32983)
updateCurrDst(33039)
Heartbeat CPU 0 instructions: 28000001 cycles: 8943827 heartbeat IPC: 3.18498 cumulative IPC: 3.13065 (Simulation time: 0 hr 1 min 29 sec) 
updateCurrDst(33139)
updateCurrDst(33233)
updateCurrDst(33321)
updateCurrDst(33464)
updateCurrDst(33709)
updateCurrDst(33940)
updateCurrDst(33957)
updateCurrDst(34372)
updateCurrDst(34450)
updateCurrDst(34465)
updateCurrDst(34543)
Heartbeat CPU 0 instructions: 29000002 cycles: 9257750 heartbeat IPC: 3.1855 cumulative IPC: 3.13251 (Simulation time: 0 hr 1 min 33 sec) 
updateCurrDst(34655)
updateCurrDst(34696)
updateCurrDst(34716)
updateCurrDst(34749)
updateCurrDst(34769)
updateCurrDst(34787)
updateCurrDst(35140)
updateCurrDst(35345)
updateCurrDst(35369)
updateCurrDst(35455)
updateCurrDst(35501)
updateCurrDst(35633)
updateCurrDst(35637)
updateCurrDst(35659)
updateCurrDst(35714)
updateCurrDst(35744)
Heartbeat CPU 0 instructions: 30000003 cycles: 9571451 heartbeat IPC: 3.18775 cumulative IPC: 3.13432 (Simulation time: 0 hr 1 min 36 sec) 
updateCurrDst(36099)
updateCurrDst(36128)
updateCurrDst(36207)
updateCurrDst(36272)
updateCurrDst(36521)
updateCurrDst(36694)
updateCurrDst(36765)
updateCurrDst(37159)
updateCurrDst(37160)
updateCurrDst(37185)
updateCurrDst(37243)
updateCurrDst(37373)
updateCurrDst(37421)
updateCurrDst(37544)
Heartbeat CPU 0 instructions: 31000003 cycles: 9885351 heartbeat IPC: 3.18573 cumulative IPC: 3.13595 (Simulation time: 0 hr 1 min 39 sec) 
updateCurrDst(37723)
updateCurrDst(37748)
updateCurrDst(37966)
updateCurrDst(37998)
updateCurrDst(38264)
updateCurrDst(38369)
updateCurrDst(38486)
updateCurrDst(38507)
updateCurrDst(38555)
updateCurrDst(38587)
updateCurrDst(38612)
updateCurrDst(38708)
updateCurrDst(38889)
updateCurrDst(38917)
updateCurrDst(38985)
Heartbeat CPU 0 instructions: 32000000 cycles: 10199174 heartbeat IPC: 3.1865 cumulative IPC: 3.13751 (Simulation time: 0 hr 1 min 42 sec) 
updateCurrDst(39066)
updateCurrDst(39075)
updateCurrDst(39198)
updateCurrDst(39289)
updateCurrDst(39396)
updateCurrDst(39489)
updateCurrDst(39539)
updateCurrDst(39707)
updateCurrDst(39734)
updateCurrDst(39952)
updateCurrDst(40027)
updateCurrDst(40034)
updateCurrDst(40283)
updateCurrDst(40325)
updateCurrDst(40382)
updateCurrDst(40436)
updateCurrDst(40452)
Heartbeat CPU 0 instructions: 33000000 cycles: 10512916 heartbeat IPC: 3.18733 cumulative IPC: 3.139 (Simulation time: 0 hr 1 min 46 sec) 
updateCurrDst(40568)
updateCurrDst(40789)
updateCurrDst(41157)
updateCurrDst(41340)
updateCurrDst(41487)
updateCurrDst(41691)
updateCurrDst(41693)
updateCurrDst(41740)
updateCurrDst(41756)
updateCurrDst(41818)
updateCurrDst(42006)
Heartbeat CPU 0 instructions: 34000001 cycles: 10826844 heartbeat IPC: 3.18545 cumulative IPC: 3.14034 (Simulation time: 0 hr 1 min 49 sec) 
updateCurrDst(42028)
updateCurrDst(42036)
updateCurrDst(42107)
updateCurrDst(42308)
updateCurrDst(42489)
updateCurrDst(42773)
updateCurrDst(42784)
updateCurrDst(42822)
updateCurrDst(42827)
updateCurrDst(42855)
updateCurrDst(42891)
updateCurrDst(43029)
updateCurrDst(43155)
updateCurrDst(43333)
Heartbeat CPU 0 instructions: 35000003 cycles: 11140769 heartbeat IPC: 3.18548 cumulative IPC: 3.14161 (Simulation time: 0 hr 1 min 52 sec) 
updateCurrDst(43564)
updateCurrDst(43635)
updateCurrDst(43661)
updateCurrDst(43768)
updateCurrDst(43943)
updateCurrDst(43955)
updateCurrDst(43997)
updateCurrDst(44121)
updateCurrDst(44135)
updateCurrDst(44246)
updateCurrDst(44259)
updateCurrDst(44553)
updateCurrDst(44592)
updateCurrDst(44615)
updateCurrDst(44648)
updateCurrDst(44669)
updateCurrDst(44700)
updateCurrDst(44829)
updateCurrDst(45006)
Heartbeat CPU 0 instructions: 36000003 cycles: 11454621 heartbeat IPC: 3.18622 cumulative IPC: 3.14284 (Simulation time: 0 hr 1 min 55 sec) 
updateCurrDst(45298)
updateCurrDst(45318)
updateCurrDst(45409)
updateCurrDst(45542)
updateCurrDst(45718)
updateCurrDst(45816)
updateCurrDst(46064)
updateCurrDst(46160)
updateCurrDst(46220)
Heartbeat CPU 0 instructions: 37000002 cycles: 11768254 heartbeat IPC: 3.18844 cumulative IPC: 3.14405 (Simulation time: 0 hr 1 min 59 sec) 
updateCurrDst(46691)
updateCurrDst(46784)
updateCurrDst(46899)
updateCurrDst(47445)
updateCurrDst(47743)
updateCurrDst(47812)
Heartbeat CPU 0 instructions: 38000003 cycles: 12081959 heartbeat IPC: 3.18771 cumulative IPC: 3.14519 (Simulation time: 0 hr 2 min 2 sec) 
updateCurrDst(48073)
updateCurrDst(48403)
updateCurrDst(48476)
updateCurrDst(48534)
updateCurrDst(48612)
updateCurrDst(48971)
updateCurrDst(49173)
updateCurrDst(49242)
updateCurrDst(49386)
updateCurrDst(49401)
Heartbeat CPU 0 instructions: 39000003 cycles: 12396130 heartbeat IPC: 3.18298 cumulative IPC: 3.14614 (Simulation time: 0 hr 2 min 5 sec) 
updateCurrDst(49622)
updateCurrDst(49729)
updateCurrDst(50032)
updateCurrDst(50050)
updateCurrDst(50217)
updateCurrDst(50337)
updateCurrDst(50473)
updateCurrDst(50531)
updateCurrDst(50615)
updateCurrDst(50638)
updateCurrDst(50695)
updateCurrDst(50727)
updateCurrDst(50829)
updateCurrDst(50844)
Heartbeat CPU 0 instructions: 40000003 cycles: 12710313 heartbeat IPC: 3.18286 cumulative IPC: 3.14705 (Simulation time: 0 hr 2 min 8 sec) 
updateCurrDst(51198)
updateCurrDst(51308)
updateCurrDst(51385)
updateCurrDst(51488)
updateCurrDst(51490)
updateCurrDst(51543)
updateCurrDst(51603)
updateCurrDst(51855)
updateCurrDst(51860)
updateCurrDst(51869)
updateCurrDst(51931)
updateCurrDst(51973)
updateCurrDst(52016)
updateCurrDst(52050)
updateCurrDst(52163)
updateCurrDst(52172)
updateCurrDst(52227)
updateCurrDst(52452)
Heartbeat CPU 0 instructions: 41000000 cycles: 13024193 heartbeat IPC: 3.18592 cumulative IPC: 3.14799 (Simulation time: 0 hr 2 min 11 sec) 
updateCurrDst(52483)
updateCurrDst(52744)
updateCurrDst(52749)
updateCurrDst(53139)
updateCurrDst(53140)
updateCurrDst(53156)
updateCurrDst(53277)
updateCurrDst(53280)
updateCurrDst(53502)
updateCurrDst(53554)
updateCurrDst(53773)
Heartbeat CPU 0 instructions: 42000002 cycles: 13337967 heartbeat IPC: 3.18701 cumulative IPC: 3.14891 (Simulation time: 0 hr 2 min 14 sec) 
updateCurrDst(53948)
updateCurrDst(53957)
updateCurrDst(54001)
updateCurrDst(54058)
updateCurrDst(54126)
updateCurrDst(54128)
updateCurrDst(54554)
updateCurrDst(54562)
updateCurrDst(54611)
updateCurrDst(54671)
updateCurrDst(54729)
updateCurrDst(54868)
updateCurrDst(54880)
updateCurrDst(55196)
Heartbeat CPU 0 instructions: 43000001 cycles: 13651837 heartbeat IPC: 3.18603 cumulative IPC: 3.14976 (Simulation time: 0 hr 2 min 17 sec) 
updateCurrDst(55505)
updateCurrDst(55701)
updateCurrDst(55795)
updateCurrDst(55850)
updateCurrDst(55935)
updateCurrDst(55986)
updateCurrDst(56171)
updateCurrDst(56203)
updateCurrDst(56237)
updateCurrDst(56310)
updateCurrDst(56341)
updateCurrDst(56446)
updateCurrDst(56460)
updateCurrDst(56508)
updateCurrDst(56554)
updateCurrDst(56611)
updateCurrDst(56734)
Heartbeat CPU 0 instructions: 44000000 cycles: 13965718 heartbeat IPC: 3.18592 cumulative IPC: 3.15057 (Simulation time: 0 hr 2 min 20 sec) 
updateCurrDst(56932)
updateCurrDst(56972)
updateCurrDst(57045)
updateCurrDst(57175)
updateCurrDst(57202)
updateCurrDst(57227)
updateCurrDst(57285)
updateCurrDst(57466)
updateCurrDst(57498)
updateCurrDst(57511)
updateCurrDst(57521)
updateCurrDst(57638)
updateCurrDst(57678)
updateCurrDst(57773)
updateCurrDst(57774)
updateCurrDst(58147)
updateCurrDst(58188)
updateCurrDst(58300)
Heartbeat CPU 0 instructions: 45000002 cycles: 14279458 heartbeat IPC: 3.18736 cumulative IPC: 3.15138 (Simulation time: 0 hr 2 min 23 sec) 
updateCurrDst(58581)
updateCurrDst(58661)
updateCurrDst(58701)
updateCurrDst(58716)
updateCurrDst(58744)
updateCurrDst(58757)
updateCurrDst(58758)
updateCurrDst(59038)
updateCurrDst(59105)
updateCurrDst(59162)
updateCurrDst(59348)
updateCurrDst(59554)
updateCurrDst(59622)
updateCurrDst(59690)
updateCurrDst(59714)
updateCurrDst(59895)
Heartbeat CPU 0 instructions: 46000003 cycles: 14593251 heartbeat IPC: 3.18682 cumulative IPC: 3.15214 (Simulation time: 0 hr 2 min 26 sec) 
updateCurrDst(59966)
updateCurrDst(60037)
updateCurrDst(60239)
updateCurrDst(60539)
updateCurrDst(60548)
updateCurrDst(60739)
updateCurrDst(60768)
updateCurrDst(60871)
updateCurrDst(61074)
updateCurrDst(61115)
updateCurrDst(61309)
Heartbeat CPU 0 instructions: 47000002 cycles: 14907248 heartbeat IPC: 3.18474 cumulative IPC: 3.15283 (Simulation time: 0 hr 2 min 29 sec) 

Warmup complete CPU 0 instructions: 47000002 cycles: 14907248 (Simulation time: 0 hr 2 min 29 sec) 

updateCurrDst(61430)
updateCurrDst(61727)
updateCurrDst(62147)
updateCurrDst(62175)
updateCurrDst(62276)
updateCurrDst(62312)
updateCurrDst(62386)
updateCurrDst(62401)
updateCurrDst(62452)
updateCurrDst(62483)
updateCurrDst(62495)
updateCurrDst(62793)
updateCurrDst(62864)
Heartbeat CPU 0 instructions: 48000000 cycles: 17996901 heartbeat IPC: 0.32366 cumulative IPC: 0.32366 (Simulation time: 0 hr 2 min 32 sec) 
updateCurrDst(63054)
updateCurrDst(63057)
updateCurrDst(63081)
updateCurrDst(63145)
updateCurrDst(63195)
updateCurrDst(63205)
updateCurrDst(63319)
updateCurrDst(63408)
updateCurrDst(63518)
updateCurrDst(63611)
updateCurrDst(63661)
updateCurrDst(63800)
updateCurrDst(63829)
updateCurrDst(64231)
updateCurrDst(64291)
updateCurrDst(64354)
updateCurrDst(64358)
Heartbeat CPU 0 instructions: 49000002 cycles: 21086375 heartbeat IPC: 0.32368 cumulative IPC: 0.32367 (Simulation time: 0 hr 2 min 36 sec) 
updateCurrDst(64539)
updateCurrDst(64684)
updateCurrDst(64827)
updateCurrDst(64917)
updateCurrDst(65107)
updateCurrDst(65176)
updateCurrDst(65273)
updateCurrDst(65432)
updateCurrDst(65653)
updateCurrDst(65765)
Heartbeat CPU 0 instructions: 50000002 cycles: 24169656 heartbeat IPC: 0.32433 cumulative IPC: 0.32389 (Simulation time: 0 hr 2 min 39 sec) 
updateCurrDst(65898)
updateCurrDst(66057)
updateCurrDst(66064)
updateCurrDst(66084)
updateCurrDst(66155)
updateCurrDst(66218)
updateCurrDst(66241)
updateCurrDst(66253)
updateCurrDst(66273)
updateCurrDst(66323)
updateCurrDst(66375)
updateCurrDst(66380)
updateCurrDst(66409)
updateCurrDst(66460)
updateCurrDst(66520)
updateCurrDst(66583)
updateCurrDst(66742)
updateCurrDst(66864)
updateCurrDst(66962)
updateCurrDst(66972)
updateCurrDst(67037)
updateCurrDst(67136)
updateCurrDst(67183)
Heartbeat CPU 0 instructions: 51000003 cycles: 27265343 heartbeat IPC: 0.32303 cumulative IPC: 0.323675 (Simulation time: 0 hr 2 min 43 sec) 
updateCurrDst(67646)
updateCurrDst(67858)
updateCurrDst(67863)
updateCurrDst(67929)
updateCurrDst(67997)
updateCurrDst(68039)
updateCurrDst(68061)
updateCurrDst(68232)
updateCurrDst(68428)
updateCurrDst(68557)
updateCurrDst(68562)
updateCurrDst(68723)
updateCurrDst(68734)
Heartbeat CPU 0 instructions: 52000002 cycles: 30352807 heartbeat IPC: 0.32389 cumulative IPC: 0.323718 (Simulation time: 0 hr 2 min 47 sec) 
updateCurrDst(69012)
updateCurrDst(69091)
updateCurrDst(69168)
updateCurrDst(69173)
updateCurrDst(69257)
updateCurrDst(69277)
updateCurrDst(69565)
updateCurrDst(69578)
updateCurrDst(69678)
updateCurrDst(69841)
updateCurrDst(69910)
updateCurrDst(70017)
updateCurrDst(70047)
updateCurrDst(70230)
updateCurrDst(70239)
Heartbeat CPU 0 instructions: 53000001 cycles: 33441316 heartbeat IPC: 0.323781 cumulative IPC: 0.323728 (Simulation time: 0 hr 2 min 50 sec) 
updateCurrDst(70491)
updateCurrDst(70538)
updateCurrDst(70566)
updateCurrDst(70580)
updateCurrDst(70582)
updateCurrDst(70745)
updateCurrDst(71013)
updateCurrDst(71050)
updateCurrDst(71143)
updateCurrDst(71151)
updateCurrDst(71345)
updateCurrDst(71354)
Heartbeat CPU 0 instructions: 54000000 cycles: 36523961 heartbeat IPC: 0.324396 cumulative IPC: 0.323823 (Simulation time: 0 hr 2 min 54 sec) 
updateCurrDst(71911)
updateCurrDst(72121)
updateCurrDst(72135)
updateCurrDst(72150)
updateCurrDst(72411)
updateCurrDst(72595)
updateCurrDst(72672)
updateCurrDst(72751)
updateCurrDst(72860)
updateCurrDst(72954)
updateCurrDst(72955)
updateCurrDst(73080)
updateCurrDst(73144)
Heartbeat CPU 0 instructions: 55000000 cycles: 39610631 heartbeat IPC: 0.323974 cumulative IPC: 0.323842 (Simulation time: 0 hr 2 min 58 sec) 
updateCurrDst(73454)
updateCurrDst(73537)
updateCurrDst(73610)
updateCurrDst(73634)
updateCurrDst(73644)
updateCurrDst(73693)
updateCurrDst(73735)
updateCurrDst(73876)
updateCurrDst(73905)
updateCurrDst(74016)
updateCurrDst(74413)
updateCurrDst(74609)
updateCurrDst(74709)
Heartbeat CPU 0 instructions: 56000002 cycles: 42698820 heartbeat IPC: 0.323815 cumulative IPC: 0.323839 (Simulation time: 0 hr 3 min 1 sec) 
updateCurrDst(74773)
updateCurrDst(75054)
updateCurrDst(75061)
updateCurrDst(75174)
updateCurrDst(75382)
updateCurrDst(75609)
updateCurrDst(75652)
updateCurrDst(75722)
updateCurrDst(75921)
updateCurrDst(75933)
updateCurrDst(76020)
updateCurrDst(76056)
updateCurrDst(76085)
updateCurrDst(76165)
updateCurrDst(76179)
Heartbeat CPU 0 instructions: 57000000 cycles: 45779660 heartbeat IPC: 0.324586 cumulative IPC: 0.323914 (Simulation time: 0 hr 3 min 5 sec) 
updateCurrDst(76312)
updateCurrDst(76635)
updateCurrDst(76661)
updateCurrDst(76741)
updateCurrDst(76803)
updateCurrDst(76841)
updateCurrDst(76887)
updateCurrDst(76922)
updateCurrDst(76964)
updateCurrDst(76978)
updateCurrDst(77050)
updateCurrDst(77164)
updateCurrDst(77167)
updateCurrDst(77247)
updateCurrDst(77406)
updateCurrDst(77425)
updateCurrDst(77445)
updateCurrDst(77467)
updateCurrDst(77529)
updateCurrDst(77583)
updateCurrDst(77614)
updateCurrDst(77622)
updateCurrDst(77625)
updateCurrDst(77649)
Heartbeat CPU 0 instructions: 58000001 cycles: 48866338 heartbeat IPC: 0.323973 cumulative IPC: 0.323919 (Simulation time: 0 hr 3 min 8 sec) 
updateCurrDst(77800)
updateCurrDst(77849)
updateCurrDst(78121)
updateCurrDst(78146)
updateCurrDst(78153)
updateCurrDst(78178)
updateCurrDst(78237)
updateCurrDst(78261)
updateCurrDst(78328)
updateCurrDst(78389)
updateCurrDst(78483)
updateCurrDst(78636)
updateCurrDst(78794)
updateCurrDst(78922)
updateCurrDst(79203)
Heartbeat CPU 0 instructions: 59000000 cycles: 51945882 heartbeat IPC: 0.324723 cumulative IPC: 0.323986 (Simulation time: 0 hr 3 min 12 sec) 
updateCurrDst(79520)
updateCurrDst(79604)
updateCurrDst(79757)
updateCurrDst(79842)
updateCurrDst(80053)
updateCurrDst(80233)
updateCurrDst(80244)
updateCurrDst(80304)
updateCurrDst(80328)
updateCurrDst(80533)
updateCurrDst(80561)
Heartbeat CPU 0 instructions: 60000002 cycles: 55030136 heartbeat IPC: 0.324228 cumulative IPC: 0.324005 (Simulation time: 0 hr 3 min 15 sec) 
updateCurrDst(80722)
updateCurrDst(80727)
updateCurrDst(80867)
updateCurrDst(80931)
updateCurrDst(80963)
updateCurrDst(81093)
updateCurrDst(81118)
updateCurrDst(81248)
updateCurrDst(81466)
updateCurrDst(81497)
updateCurrDst(81640)
updateCurrDst(81691)
updateCurrDst(81728)
updateCurrDst(82046)
Heartbeat CPU 0 instructions: 61000000 cycles: 58122547 heartbeat IPC: 0.323372 cumulative IPC: 0.323959 (Simulation time: 0 hr 3 min 19 sec) 
updateCurrDst(82274)
updateCurrDst(82370)
updateCurrDst(82533)
updateCurrDst(82841)
updateCurrDst(82998)
updateCurrDst(83020)
updateCurrDst(83132)
updateCurrDst(83219)
updateCurrDst(83344)
updateCurrDst(83463)
Heartbeat CPU 0 instructions: 62000000 cycles: 61205236 heartbeat IPC: 0.324392 cumulative IPC: 0.323988 (Simulation time: 0 hr 3 min 22 sec) 
updateCurrDst(83846)
updateCurrDst(83852)
updateCurrDst(83853)
updateCurrDst(84164)
updateCurrDst(84237)
updateCurrDst(84350)
updateCurrDst(84421)
updateCurrDst(84460)
updateCurrDst(84536)
updateCurrDst(84570)
updateCurrDst(84878)
updateCurrDst(84940)
Heartbeat CPU 0 instructions: 63000000 cycles: 64301022 heartbeat IPC: 0.32302 cumulative IPC: 0.323927 (Simulation time: 0 hr 3 min 26 sec) 
updateCurrDst(85240)
updateCurrDst(85371)
updateCurrDst(85416)
updateCurrDst(85721)
updateCurrDst(85738)
updateCurrDst(85921)
updateCurrDst(85952)
updateCurrDst(86373)
updateCurrDst(86407)
updateCurrDst(86592)
updateCurrDst(86610)
Heartbeat CPU 0 instructions: 64000002 cycles: 67383188 heartbeat IPC: 0.324448 cumulative IPC: 0.323958 (Simulation time: 0 hr 3 min 29 sec) 
updateCurrDst(86924)
updateCurrDst(86968)
updateCurrDst(87059)
updateCurrDst(87288)
updateCurrDst(87400)
updateCurrDst(87447)
updateCurrDst(87478)
updateCurrDst(87493)
updateCurrDst(87617)
updateCurrDst(87809)
updateCurrDst(87865)
updateCurrDst(87993)
Heartbeat CPU 0 instructions: 65000002 cycles: 70475291 heartbeat IPC: 0.323404 cumulative IPC: 0.323927 (Simulation time: 0 hr 3 min 33 sec) 
updateCurrDst(88139)
updateCurrDst(88259)
updateCurrDst(88338)
updateCurrDst(88343)
updateCurrDst(88383)
updateCurrDst(88415)
updateCurrDst(88496)
updateCurrDst(88582)
updateCurrDst(88705)
updateCurrDst(88748)
updateCurrDst(88805)
updateCurrDst(88879)
updateCurrDst(89163)
updateCurrDst(89330)
updateCurrDst(89446)
updateCurrDst(89474)
Heartbeat CPU 0 instructions: 66000000 cycles: 73561644 heartbeat IPC: 0.324006 cumulative IPC: 0.323931 (Simulation time: 0 hr 3 min 36 sec) 
updateCurrDst(89789)
updateCurrDst(89885)
updateCurrDst(89912)
updateCurrDst(89946)
updateCurrDst(89997)
updateCurrDst(90228)
updateCurrDst(90306)
updateCurrDst(90343)
updateCurrDst(90365)
updateCurrDst(90434)
updateCurrDst(90475)
updateCurrDst(90630)
updateCurrDst(90671)
updateCurrDst(90715)
updateCurrDst(90848)
updateCurrDst(91053)
Heartbeat CPU 0 instructions: 67000000 cycles: 76642613 heartbeat IPC: 0.324573 cumulative IPC: 0.323963 (Simulation time: 0 hr 3 min 40 sec) 
updateCurrDst(91131)
updateCurrDst(91173)
updateCurrDst(91451)
updateCurrDst(91491)
updateCurrDst(91530)
updateCurrDst(91889)
updateCurrDst(92008)
updateCurrDst(92041)
updateCurrDst(92159)
updateCurrDst(92223)
updateCurrDst(92233)
updateCurrDst(92301)
updateCurrDst(92304)
updateCurrDst(92410)
updateCurrDst(92426)
updateCurrDst(92433)
updateCurrDst(92466)
Heartbeat CPU 0 instructions: 68000001 cycles: 79733631 heartbeat IPC: 0.323518 cumulative IPC: 0.323942 (Simulation time: 0 hr 3 min 43 sec) 
updateCurrDst(92665)
updateCurrDst(92676)
updateCurrDst(93141)
updateCurrDst(93282)
updateCurrDst(93794)
updateCurrDst(93840)
Heartbeat CPU 0 instructions: 69000000 cycles: 82814914 heartbeat IPC: 0.32454 cumulative IPC: 0.323969 (Simulation time: 0 hr 3 min 47 sec) 
updateCurrDst(94193)
updateCurrDst(94343)
updateCurrDst(94585)
updateCurrDst(94742)
updateCurrDst(94836)
updateCurrDst(94905)
updateCurrDst(95195)
updateCurrDst(95201)
updateCurrDst(95351)
updateCurrDst(95381)
Heartbeat CPU 0 instructions: 70000000 cycles: 85907415 heartbeat IPC: 0.323363 cumulative IPC: 0.323943 (Simulation time: 0 hr 3 min 50 sec) 
updateCurrDst(95589)
updateCurrDst(95615)
updateCurrDst(95684)
updateCurrDst(95800)
updateCurrDst(95891)
updateCurrDst(96113)
updateCurrDst(96314)
updateCurrDst(96459)
updateCurrDst(96555)
updateCurrDst(96568)
updateCurrDst(96646)
updateCurrDst(96649)
updateCurrDst(96660)
updateCurrDst(96664)
updateCurrDst(96680)
updateCurrDst(96728)
updateCurrDst(96913)
Heartbeat CPU 0 instructions: 71000002 cycles: 88989655 heartbeat IPC: 0.32444 cumulative IPC: 0.323964 (Simulation time: 0 hr 3 min 53 sec) 
updateCurrDst(97079)
updateCurrDst(97102)
updateCurrDst(97259)
updateCurrDst(97744)
updateCurrDst(97759)
updateCurrDst(97762)
updateCurrDst(97771)
updateCurrDst(97830)
updateCurrDst(97929)
updateCurrDst(97932)
updateCurrDst(98208)
updateCurrDst(98493)
Heartbeat CPU 0 instructions: 72000002 cycles: 92072496 heartbeat IPC: 0.324376 cumulative IPC: 0.32398 (Simulation time: 0 hr 3 min 57 sec) 
updateCurrDst(98575)
updateCurrDst(98819)
updateCurrDst(98916)
updateCurrDst(99083)
updateCurrDst(99115)
updateCurrDst(99167)
updateCurrDst(99540)
updateCurrDst(99564)
updateCurrDst(99617)
updateCurrDst(99671)
updateCurrDst(99673)
updateCurrDst(99720)
updateCurrDst(99877)
updateCurrDst(99951)
updateCurrDst(99988)
Heartbeat CPU 0 instructions: 73000000 cycles: 95167632 heartbeat IPC: 0.323087 cumulative IPC: 0.323946 (Simulation time: 0 hr 4 min 0 sec) 
updateCurrDst(100114)
updateCurrDst(100147)
updateCurrDst(100149)
updateCurrDst(100151)
updateCurrDst(100200)
updateCurrDst(100453)
updateCurrDst(100825)
updateCurrDst(101081)
updateCurrDst(101099)
updateCurrDst(101184)
updateCurrDst(101335)
updateCurrDst(101358)
updateCurrDst(101528)
Heartbeat CPU 0 instructions: 74000002 cycles: 98249887 heartbeat IPC: 0.324438 cumulative IPC: 0.323964 (Simulation time: 0 hr 4 min 4 sec) 
updateCurrDst(101913)
updateCurrDst(101951)
updateCurrDst(101997)
updateCurrDst(102007)
updateCurrDst(102093)
updateCurrDst(102149)
updateCurrDst(102425)
updateCurrDst(102702)
updateCurrDst(102732)
Heartbeat CPU 0 instructions: 75000000 cycles: 101340809 heartbeat IPC: 0.323527 cumulative IPC: 0.323948 (Simulation time: 0 hr 4 min 7 sec) 
updateCurrDst(103275)
updateCurrDst(103330)
updateCurrDst(103359)
updateCurrDst(103467)
updateCurrDst(103491)
updateCurrDst(103493)
updateCurrDst(103543)
updateCurrDst(103601)
updateCurrDst(103606)
updateCurrDst(103727)
updateCurrDst(103826)
updateCurrDst(103857)
updateCurrDst(104036)
updateCurrDst(104065)
updateCurrDst(104274)
updateCurrDst(104327)
updateCurrDst(104456)
Heartbeat CPU 0 instructions: 76000003 cycles: 104427761 heartbeat IPC: 0.323945 cumulative IPC: 0.323948 (Simulation time: 0 hr 4 min 10 sec) 
updateCurrDst(104730)
updateCurrDst(104835)
updateCurrDst(104860)
updateCurrDst(104962)
updateCurrDst(105028)
updateCurrDst(105299)
updateCurrDst(105373)
updateCurrDst(105382)
updateCurrDst(105499)
updateCurrDst(105626)
updateCurrDst(105889)
Heartbeat CPU 0 instructions: 77000000 cycles: 107513550 heartbeat IPC: 0.324065 cumulative IPC: 0.323952 (Simulation time: 0 hr 4 min 13 sec) 
updateCurrDst(106051)
updateCurrDst(106066)
updateCurrDst(106137)
updateCurrDst(106162)
updateCurrDst(106171)
updateCurrDst(106219)
updateCurrDst(106435)
updateCurrDst(106577)
updateCurrDst(106581)
updateCurrDst(106643)
updateCurrDst(106689)
updateCurrDst(106693)
updateCurrDst(106708)
updateCurrDst(106805)
updateCurrDst(106815)
updateCurrDst(106965)
updateCurrDst(107005)
updateCurrDst(107158)
updateCurrDst(107170)
updateCurrDst(107356)
updateCurrDst(107486)
Heartbeat CPU 0 instructions: 78000001 cycles: 110604698 heartbeat IPC: 0.323505 cumulative IPC: 0.323938 (Simulation time: 0 hr 4 min 17 sec) 
updateCurrDst(107713)
updateCurrDst(107838)
updateCurrDst(107993)
updateCurrDst(108013)
updateCurrDst(108191)
updateCurrDst(108306)
updateCurrDst(108408)
updateCurrDst(108546)
updateCurrDst(108709)
updateCurrDst(108712)
updateCurrDst(108967)
Heartbeat CPU 0 instructions: 79000000 cycles: 113700055 heartbeat IPC: 0.323064 cumulative IPC: 0.32391 (Simulation time: 0 hr 4 min 20 sec) 
updateCurrDst(109166)
updateCurrDst(109171)
updateCurrDst(109268)
updateCurrDst(109274)
updateCurrDst(109380)
updateCurrDst(109406)
updateCurrDst(110391)
Heartbeat CPU 0 instructions: 80000001 cycles: 116782910 heartbeat IPC: 0.324375 cumulative IPC: 0.323924 (Simulation time: 0 hr 4 min 25 sec) 
updateCurrDst(110645)
updateCurrDst(110690)
updateCurrDst(110756)
updateCurrDst(110788)
updateCurrDst(110933)
updateCurrDst(111153)
updateCurrDst(111225)
updateCurrDst(111485)
updateCurrDst(111570)
updateCurrDst(111578)
updateCurrDst(111609)
updateCurrDst(111945)
updateCurrDst(111971)
Heartbeat CPU 0 instructions: 81000000 cycles: 119864889 heartbeat IPC: 0.324467 cumulative IPC: 0.32394 (Simulation time: 0 hr 4 min 28 sec) 
updateCurrDst(112043)
updateCurrDst(112046)
updateCurrDst(112060)
updateCurrDst(112120)
updateCurrDst(112603)
updateCurrDst(112606)
updateCurrDst(112621)
updateCurrDst(112820)
updateCurrDst(113002)
updateCurrDst(113402)
Heartbeat CPU 0 instructions: 82000000 cycles: 122962695 heartbeat IPC: 0.322809 cumulative IPC: 0.323908 (Simulation time: 0 hr 4 min 32 sec) 
updateCurrDst(113547)
updateCurrDst(113705)
updateCurrDst(113893)
updateCurrDst(113907)
updateCurrDst(114047)
updateCurrDst(114159)
updateCurrDst(114285)
updateCurrDst(114334)
updateCurrDst(114484)
updateCurrDst(114527)
updateCurrDst(114564)
updateCurrDst(114656)
updateCurrDst(114664)
updateCurrDst(114733)
updateCurrDst(114737)
Heartbeat CPU 0 instructions: 83000000 cycles: 126046542 heartbeat IPC: 0.32427 cumulative IPC: 0.323918 (Simulation time: 0 hr 4 min 35 sec) 
updateCurrDst(114952)
updateCurrDst(114962)
updateCurrDst(115000)
updateCurrDst(115055)
updateCurrDst(115284)
updateCurrDst(115417)
updateCurrDst(115458)
updateCurrDst(115487)
updateCurrDst(115508)
updateCurrDst(115531)
updateCurrDst(115601)
updateCurrDst(115630)
updateCurrDst(115750)
updateCurrDst(115820)
updateCurrDst(116044)
updateCurrDst(116074)
updateCurrDst(116192)
updateCurrDst(116247)
updateCurrDst(116339)
updateCurrDst(116344)
updateCurrDst(116381)
updateCurrDst(116386)
Heartbeat CPU 0 instructions: 84000003 cycles: 129129823 heartbeat IPC: 0.324331 cumulative IPC: 0.323929 (Simulation time: 0 hr 4 min 39 sec) 
updateCurrDst(116555)
updateCurrDst(116620)
updateCurrDst(116733)
updateCurrDst(116739)
updateCurrDst(116791)
updateCurrDst(116925)
updateCurrDst(116971)
updateCurrDst(117155)
updateCurrDst(117286)
updateCurrDst(117455)
updateCurrDst(117672)
updateCurrDst(117782)
updateCurrDst(117819)
Heartbeat CPU 0 instructions: 85000001 cycles: 132214182 heartbeat IPC: 0.324216 cumulative IPC: 0.323937 (Simulation time: 0 hr 4 min 42 sec) 
updateCurrDst(118196)
updateCurrDst(118280)
updateCurrDst(118385)
updateCurrDst(118620)
updateCurrDst(118702)
updateCurrDst(118817)
updateCurrDst(118842)
updateCurrDst(118859)
updateCurrDst(118943)
updateCurrDst(118980)
updateCurrDst(119308)
Heartbeat CPU 0 instructions: 86000001 cycles: 135297366 heartbeat IPC: 0.32434 cumulative IPC: 0.323947 (Simulation time: 0 hr 4 min 46 sec) 
updateCurrDst(119410)
updateCurrDst(119433)
updateCurrDst(119627)
updateCurrDst(119765)
updateCurrDst(120008)
updateCurrDst(120154)
updateCurrDst(120170)
updateCurrDst(120176)
updateCurrDst(120260)
updateCurrDst(120313)
updateCurrDst(120392)
updateCurrDst(120471)
updateCurrDst(120653)
Heartbeat CPU 0 instructions: 87000002 cycles: 138386520 heartbeat IPC: 0.323714 cumulative IPC: 0.323941 (Simulation time: 0 hr 4 min 51 sec) 
updateCurrDst(120940)
updateCurrDst(120984)
updateCurrDst(121011)
updateCurrDst(121064)
updateCurrDst(121077)
updateCurrDst(121081)
updateCurrDst(121141)
updateCurrDst(121151)
updateCurrDst(121266)
updateCurrDst(121744)
updateCurrDst(121801)
updateCurrDst(121867)
updateCurrDst(122308)
updateCurrDst(122317)
Heartbeat CPU 0 instructions: 88000000 cycles: 141469044 heartbeat IPC: 0.324409 cumulative IPC: 0.323952 (Simulation time: 0 hr 4 min 55 sec) 
updateCurrDst(122564)
updateCurrDst(122589)
updateCurrDst(122752)
updateCurrDst(122775)
updateCurrDst(122984)
updateCurrDst(123008)
updateCurrDst(123049)
updateCurrDst(123174)
updateCurrDst(123403)
updateCurrDst(123463)
updateCurrDst(123719)
updateCurrDst(123758)
updateCurrDst(123793)
updateCurrDst(123817)
updateCurrDst(123840)
Heartbeat CPU 0 instructions: 89000000 cycles: 144561218 heartbeat IPC: 0.323397 cumulative IPC: 0.323939 (Simulation time: 0 hr 4 min 58 sec) 
updateCurrDst(124166)
updateCurrDst(124206)
updateCurrDst(124388)
updateCurrDst(124441)
updateCurrDst(124458)
updateCurrDst(124609)
updateCurrDst(124640)
updateCurrDst(124837)
updateCurrDst(124846)
Heartbeat CPU 0 instructions: 90000001 cycles: 147642656 heartbeat IPC: 0.324524 cumulative IPC: 0.323953 (Simulation time: 0 hr 5 min 2 sec) 
updateCurrDst(125719)
updateCurrDst(125898)
updateCurrDst(126065)
updateCurrDst(126222)
updateCurrDst(126272)
updateCurrDst(126617)
updateCurrDst(126623)
updateCurrDst(126636)
updateCurrDst(126805)
Heartbeat CPU 0 instructions: 91000001 cycles: 150731345 heartbeat IPC: 0.323762 cumulative IPC: 0.323948 (Simulation time: 0 hr 5 min 6 sec) 
updateCurrDst(126845)
updateCurrDst(127028)
updateCurrDst(127142)
updateCurrDst(127176)
updateCurrDst(127275)
updateCurrDst(127281)
updateCurrDst(127393)
updateCurrDst(127412)
updateCurrDst(127691)
updateCurrDst(127934)
updateCurrDst(127941)
updateCurrDst(127979)
updateCurrDst(128013)
Heartbeat CPU 0 instructions: 92000002 cycles: 153825154 heartbeat IPC: 0.323226 cumulative IPC: 0.323932 (Simulation time: 0 hr 5 min 11 sec) 
updateCurrDst(128308)
updateCurrDst(128318)
updateCurrDst(128343)
updateCurrDst(128367)
updateCurrDst(128581)
updateCurrDst(128633)
updateCurrDst(128663)
updateCurrDst(128807)
updateCurrDst(128903)
updateCurrDst(129017)
updateCurrDst(129127)
updateCurrDst(129190)
updateCurrDst(129242)
updateCurrDst(129457)
updateCurrDst(129479)
updateCurrDst(129569)
updateCurrDst(129609)
updateCurrDst(129652)
Heartbeat CPU 0 instructions: 93000000 cycles: 156907299 heartbeat IPC: 0.324449 cumulative IPC: 0.323944 (Simulation time: 0 hr 5 min 15 sec) 
updateCurrDst(129869)
updateCurrDst(129886)
updateCurrDst(129943)
updateCurrDst(130012)
updateCurrDst(130148)
updateCurrDst(130156)
updateCurrDst(130304)
updateCurrDst(130513)
updateCurrDst(130601)
updateCurrDst(130743)
updateCurrDst(130764)
updateCurrDst(130828)
updateCurrDst(130830)
updateCurrDst(130885)
*** Reached end of trace for Core: 0 Repeating trace: ./tracer/pull_u17_k5.xzafter: 93876663
Heartbeat CPU 0 instructions: 94000002 cycles: 160076341 heartbeat IPC: 0.315553 cumulative IPC: 0.32376 (Simulation time: 0 hr 5 min 20 sec) 
Finished CPU 0 instructions: 47000000 cycles: 145169093 cumulative IPC: 0.32376 (Simulation time: 0 hr 5 min 20 sec) 

ChampSim completed all CPUs

Region of Interest Statistics

CPU 0 cumulative IPC: 0.32376 instructions: 47000000 cycles: 145169093

Total ROB STALLS:                   17614592
STLB MISS ROB STALLS:                    826
L1D  LOAD MISS ROB STALLS:            693961  Translation MISS ROB STALLS:             0
L2C  LOAD MISS ROB STALLS:            163575  Translation MISS ROB STALLS:             0
LLC  LOAD MISS ROB STALLS:             57390  Translation MISS ROB STALLS:             0

ITLB TOTAL     ACCESS:           6237702  HIT:    6237675  MISS:         27  HIT %:    99.9996  MISS %: 0.000432852   MPKI: 0.000574468
ITLB LOAD TRANSLATION ACCESS:    6237702  HIT:    6237675  MISS:         27  HIT %:    99.9996  MISS %: 0.000432852   MPKI: 0.000574468
ITLB AVERAGE MISS LATENCY:       220.148 cycles
ITLB RQ ACCESS:     6659271	FORWARD:           0	MERGED:       421568	TO_CACHE:    6237703

DTLB TOTAL     ACCESS:          14187596  HIT:   13809968  MISS:     377628  HIT %:    97.3383  MISS %:    2.66168   MPKI: 8.03464
DTLB LOAD TRANSLATION ACCESS:   14187596  HIT:   13809968  MISS:     377628  HIT %:    97.3383  MISS %:    2.66168   MPKI: 8.03464
DTLB AVERAGE MISS LATENCY:       9.52111 cycles
DTLB RQ ACCESS:    19216586	FORWARD:           0	MERGED:      5028980	TO_CACHE:   14187606

STLB TOTAL     ACCESS:            377655  HIT:     376782  MISS:        873  HIT %:    99.7688  MISS %:   0.231163   MPKI: 0.0185745
STLB LOAD TRANSLATION ACCESS:     377655  HIT:     376782  MISS:        873  HIT %:    99.7688  MISS %:   0.231163   MPKI: 0.0185745
STLB AVERAGE MISS LATENCY:       231.944 cycles
STLB RQ ACCESS:      377655	FORWARD:           0	MERGED:            0	TO_CACHE:     377655

PSCL5 TOTAL     ACCESS:               873  HIT:        873  MISS:          0  HIT %:        100  MISS %:          0   MPKI: 0
PSCL5 LOAD TRANSLATION ACCESS:        873  HIT:        873  MISS:          0  HIT %:        100  MISS %:          0   MPKI: 0

PSCL4 TOTAL     ACCESS:               873  HIT:        873  MISS:          0  HIT %:        100  MISS %:          0   MPKI: 0
PSCL4 LOAD TRANSLATION ACCESS:        873  HIT:        873  MISS:          0  HIT %:        100  MISS %:          0   MPKI: 0

PSCL3 TOTAL     ACCESS:               873  HIT:        873  MISS:          0  HIT %:        100  MISS %:          0   MPKI: 0
PSCL3 LOAD TRANSLATION ACCESS:        873  HIT:        873  MISS:          0  HIT %:        100  MISS %:          0   MPKI: 0

PSCL2 TOTAL     ACCESS:               873  HIT:        871  MISS:          2  HIT %:    99.7709  MISS %:   0.229095   MPKI: 4.25532e-05
PSCL2 LOAD TRANSLATION ACCESS:        873  HIT:        871  MISS:          2  HIT %:    99.7709  MISS %:   0.229095   MPKI: 4.25532e-05

L1D TOTAL     ACCESS:          19215962  HIT:   18521464  MISS:     694498  HIT %:    96.3858  MISS %:    3.61417   MPKI: 14.7766  USED:     111410  UNUSED:     583088
L1D LOAD      ACCESS:           8406411  HIT:    7712404  MISS:     694007  HIT %:    91.7443  MISS %:    8.25569   MPKI: 14.7661  USED:     111390  UNUSED:     583000
L1D RFO       ACCESS:          10809551  HIT:   10809060  MISS:        491  HIT %:    99.9955  MISS %: 0.00454228   MPKI: 0.0104468
L1D PTL1 TRANSLATION ACCESS:          0  HIT:          0  MISS:          0  HIT %:       -nan  MISS %:       -nan   MPKI: 0
L1D PTL2 TRANSLATION ACCESS:          0  HIT:          0  MISS:          0  HIT %:       -nan  MISS %:       -nan   MPKI: 0
L1D PTL3 TRANSLATION ACCESS:          0  HIT:          0  MISS:          0  HIT %:       -nan  MISS %:       -nan   MPKI: 0
L1D PTL4 TRANSLATION ACCESS:          0  HIT:          0  MISS:          0  HIT %:       -nan  MISS %:       -nan   MPKI: 0
L1D PTL5 TRANSLATION ACCESS:          0  HIT:          0  MISS:          0  HIT %:       -nan  MISS %:       -nan   MPKI: 0
L1D TOTAL EVICTIONS:             694498  TRANSLATION EVICTIONS:          0  TRANSLATION EVICTING TRANSALTION:          0  TRANSLATION EVICTING LOAD:          0  LOAD EVICTING TRANSALTION:          0  LOAD EVICTING LOAD:      693996
L1D AVERAGE MISS LATENCY:       32.1153 cycles  AVERAGE LOAD MISS LATENCY:       32.0424 cycles  AVERAGE LOAD TRANSLATION MISS LATENCY:          -nan cycles
L1D RQ ACCESS:    11882188	FORWARD:           0	MERGED:      2383838	TO_CACHE:    8406426
L1D WQ ACCESS:    10817906	FORWARD:     1091924	MERGED:         7746	TO_CACHE:   10810160

L1I TOTAL     ACCESS:           6659262  HIT:    6659119  MISS:        143  HIT %:    99.9979  MISS %: 0.00214739   MPKI: 0.00304255
L1I LOAD      ACCESS:           6659262  HIT:    6659119  MISS:        143  HIT %:    99.9979  MISS %: 0.00214739   MPKI: 0.00304255
L1I AVERAGE MISS LATENCY:       193.755 cycles
L1I RQ ACCESS:    10642224	FORWARD:           0	MERGED:      3982953	TO_CACHE:    6659271

L2C TOTAL     ACCESS:            699160  HIT:     534899  MISS:     164261  HIT %:    76.5059  MISS %:    23.4941   MPKI: 3.49491  USED:      89187  UNUSED:      75074
L2C LOAD      ACCESS:            694150  HIT:     530387  MISS:     163763  HIT %:    76.4081  MISS %:    23.5919   MPKI: 3.48432  USED:      89187  UNUSED:      75074
L2C RFO       ACCESS:               491  HIT:          0  MISS:        491  HIT %:          0  MISS %:        100   MPKI: 0.0104468
L2C WRITEBACK ACCESS:              4519  HIT:       4512  MISS:          7  HIT %:    99.8451  MISS %:   0.154902   MPKI: 0.000148936
L2C PTL1 TRANSLATION ACCESS:          0  HIT:          0  MISS:          0  HIT %:       -nan  MISS %:       -nan   MPKI: 0
L2C PTL2 TRANSLATION ACCESS:          0  HIT:          0  MISS:          0  HIT %:       -nan  MISS %:       -nan   MPKI: 0
L2C PTL3 TRANSLATION ACCESS:          0  HIT:          0  MISS:          0  HIT %:       -nan  MISS %:       -nan   MPKI: 0
L2C PTL4 TRANSLATION ACCESS:          0  HIT:          0  MISS:          0  HIT %:       -nan  MISS %:       -nan   MPKI: 0
L2C PTL5 TRANSLATION ACCESS:          0  HIT:          0  MISS:          0  HIT %:       -nan  MISS %:       -nan   MPKI: 0
L2C TOTAL EVICTIONS:             164261  TRANSLATION EVICTIONS:          0  TRANSLATION EVICTING TRANSALTION:          0  TRANSLATION EVICTING LOAD:          0  LOAD EVICTING TRANSALTION:          0  LOAD EVICTING LOAD:      163763
L2C AVERAGE MISS LATENCY:       72.5199 cycles  AVERAGE LOAD MISS LATENCY:       72.3805 cycles  AVERAGE LOAD TRANSLATION MISS LATENCY:          -nan cycles
L2C RQ ACCESS:      694641	FORWARD:           0	MERGED:            0	TO_CACHE:     694641
L2C WQ ACCESS:        4519	FORWARD:           0	MERGED:            0	TO_CACHE:       4519

LLC TOTAL     ACCESS:            168656  HIT:     110585  MISS:      58071  HIT %:    65.5684  MISS %:    34.4316   MPKI: 1.23555  USED:        177  UNUSED:      57894
LLC LOAD      ACCESS:            163763  HIT:     106183  MISS:      57580  HIT %:    64.8394  MISS %:    35.1606   MPKI: 1.22511  USED:         19  UNUSED:      57894
LLC RFO       ACCESS:               491  HIT:          0  MISS:        491  HIT %:          0  MISS %:        100   MPKI: 0.0104468
LLC WRITEBACK ACCESS:              4402  HIT:       4402  MISS:          0  HIT %:        100  MISS %:          0   MPKI: 0
LLC PTL1 TRANSLATION ACCESS:          0  HIT:          0  MISS:          0  HIT %:       -nan  MISS %:       -nan   MPKI: 0
LLC PTL2 TRANSLATION ACCESS:          0  HIT:          0  MISS:          0  HIT %:       -nan  MISS %:       -nan   MPKI: 0
LLC PTL3 TRANSLATION ACCESS:          0  HIT:          0  MISS:          0  HIT %:       -nan  MISS %:       -nan   MPKI: 0
LLC PTL4 TRANSLATION ACCESS:          0  HIT:          0  MISS:          0  HIT %:       -nan  MISS %:       -nan   MPKI: 0
LLC PTL5 TRANSLATION ACCESS:          0  HIT:          0  MISS:          0  HIT %:       -nan  MISS %:       -nan   MPKI: 0
LLC TOTAL EVICTIONS:              58071  TRANSLATION EVICTIONS:          0  TRANSLATION EVICTING TRANSALTION:          0  TRANSLATION EVICTING LOAD:          0  LOAD EVICTING TRANSALTION:          0  LOAD EVICTING LOAD:       57423
LLC AVERAGE MISS LATENCY:       120.269 cycles  AVERAGE LOAD MISS LATENCY:       120.529 cycles  AVERAGE LOAD TRANSLATION MISS LATENCY:          -nan cycles
LLC RQ ACCESS:      164254	FORWARD:           0	MERGED:            0	TO_CACHE:     164254
LLC WQ ACCESS:        4402	FORWARD:           0	MERGED:            0	TO_CACHE:       4402


RAW hits: 8228889
Loads Generated: 20111074
Loads sent to L1D: 11882188
Stores Generated: 10817902
Stores sent to L1D: 10817906
Major fault: 0 Minor fault: 2178
Allocated PAGES: 2178
IRREG DATA L1D ACCESS: 1310654
L2C ACCESSES: 1198837
L2C MISSES: 204996

DRAM Statistics
 CHANNEL 0
 RQ ROW_BUFFER_HIT:      28942  ROW_BUFFER_MISS:      30002
 DBUS_CONGESTED:          1
 WQ ROW_BUFFER_HIT:         33  ROW_BUFFER_MISS:       4590  FULL:          0

 AVG_CONGESTED_CYCLE: 8

CPU 0 Branch Prediction Accuracy: 98.7928% MPKI: 1.48887 Average ROB Occupancy at Mispredict: 17.2949
Branch types
NOT_BRANCH: 41203252 87.6665%
BRANCH_DIRECT_JUMP: 0 0%
BRANCH_INDIRECT: 769808 1.63789%
BRANCH_CONDITIONAL: 0 0%
BRANCH_DIRECT_CALL: 69683 0.148262%
BRANCH_INDIRECT_CALL: 1953820 4.15706%
BRANCH_RETURN: 2023504 4.30533%
BRANCH_OTHER: 979922 2.08494%

DRAM PAGES: 1048576
Allocated PAGES: 2178
