
*** ChampSim Multicore Out-of-Order Simulator ***

Warmup Instructions: 10000000
Simulation Instructions: 10000000
Number of CPUs: 1
LLC sets: 2048
LLC ways: 16
Off-chip DRAM Size: 4096 MB Channels: 1 Width: 64-bit Data Rate: 6400 MT/s
CPU 0 runs ./tracer/pull_u15_k3.xz
.xz
BTB has LRU replacement policy
ITLB has LRU replacement policy
DTLB has LRU replacement policy
STLB has LRU replacement policy
L1I has LRU replacement policy
L1D has LRU replacement policy
L2C has LRU replacement policy
LLC has LRU replacement policy
PIN_registerGraphs(random_u15_k3.sg,1)
Graphh Number of Nodes: 32768
PIN_updateRegBaseBound( 94260931567824, 94260931698896)
updateCurrDst(88)
updateCurrDst(137)
updateCurrDst(145)
updateCurrDst(191)
updateCurrDst(300)
updateCurrDst(310)
updateCurrDst(320)
Heartbeat CPU 0 instructions: 1000002 cycles: 336470 heartbeat IPC: 2.97204 cumulative IPC: 2.97204 (Simulation time: 0 hr 0 min 2 sec) 
updateCurrDst(398)
updateCurrDst(404)
updateCurrDst(654)
updateCurrDst(708)
updateCurrDst(1064)
updateCurrDst(1065)
updateCurrDst(1084)
updateCurrDst(1253)
updateCurrDst(1293)
updateCurrDst(1358)
updateCurrDst(1382)
updateCurrDst(1466)
updateCurrDst(1681)
updateCurrDst(1738)
updateCurrDst(1812)
updateCurrDst(2128)
updateCurrDst(2289)
updateCurrDst(2311)
updateCurrDst(2387)
Heartbeat CPU 0 instructions: 2000000 cycles: 653246 heartbeat IPC: 3.1568 cumulative IPC: 3.06163 (Simulation time: 0 hr 0 min 5 sec) 
updateCurrDst(2408)
updateCurrDst(2467)
updateCurrDst(2583)
updateCurrDst(2601)
updateCurrDst(2644)
updateCurrDst(2697)
updateCurrDst(2723)
updateCurrDst(2885)
updateCurrDst(3129)
updateCurrDst(3159)
updateCurrDst(3171)
updateCurrDst(3196)
updateCurrDst(3212)
updateCurrDst(3237)
updateCurrDst(3294)
updateCurrDst(3365)
updateCurrDst(3382)
updateCurrDst(3456)
updateCurrDst(3477)
updateCurrDst(3801)
updateCurrDst(3875)
updateCurrDst(3909)
updateCurrDst(3946)
updateCurrDst(3992)
updateCurrDst(3997)
updateCurrDst(4022)
updateCurrDst(4203)
updateCurrDst(4265)
updateCurrDst(4332)
updateCurrDst(4352)
updateCurrDst(4423)
Heartbeat CPU 0 instructions: 3000000 cycles: 970070 heartbeat IPC: 3.15633 cumulative IPC: 3.09256 (Simulation time: 0 hr 0 min 8 sec) 
updateCurrDst(4632)
updateCurrDst(4639)
updateCurrDst(4760)
updateCurrDst(4959)
updateCurrDst(5089)
updateCurrDst(5090)
updateCurrDst(5102)
updateCurrDst(5167)
updateCurrDst(5333)
updateCurrDst(5406)
updateCurrDst(5480)
updateCurrDst(5636)
updateCurrDst(5862)
updateCurrDst(6138)
updateCurrDst(6155)
updateCurrDst(6180)
updateCurrDst(6319)
updateCurrDst(6380)
updateCurrDst(6446)
updateCurrDst(6514)
updateCurrDst(6526)
updateCurrDst(6538)
Heartbeat CPU 0 instructions: 4000000 cycles: 1287172 heartbeat IPC: 3.15356 cumulative IPC: 3.10759 (Simulation time: 0 hr 0 min 12 sec) 
updateCurrDst(6627)
updateCurrDst(6784)
updateCurrDst(6805)
updateCurrDst(6815)
updateCurrDst(6876)
updateCurrDst(6879)
updateCurrDst(6910)
updateCurrDst(7008)
updateCurrDst(7051)
updateCurrDst(7103)
updateCurrDst(7121)
updateCurrDst(7152)
updateCurrDst(7330)
updateCurrDst(7348)
updateCurrDst(7350)
updateCurrDst(7358)
updateCurrDst(7432)
updateCurrDst(7496)
updateCurrDst(7552)
updateCurrDst(7676)
updateCurrDst(7762)
updateCurrDst(7840)
updateCurrDst(7936)
updateCurrDst(8335)
updateCurrDst(8355)
updateCurrDst(8361)
updateCurrDst(8368)
updateCurrDst(8454)
Heartbeat CPU 0 instructions: 5000000 cycles: 1604086 heartbeat IPC: 3.15543 cumulative IPC: 3.11704 (Simulation time: 0 hr 0 min 15 sec) 
updateCurrDst(8719)
updateCurrDst(8804)
updateCurrDst(9069)
updateCurrDst(9547)
updateCurrDst(9647)
updateCurrDst(9711)
updateCurrDst(9753)
updateCurrDst(9766)
updateCurrDst(9875)
updateCurrDst(10044)
updateCurrDst(10133)
updateCurrDst(10151)
updateCurrDst(10153)
updateCurrDst(10206)
updateCurrDst(10289)
updateCurrDst(10371)
updateCurrDst(10427)
updateCurrDst(10472)
updateCurrDst(10708)
updateCurrDst(10732)
Heartbeat CPU 0 instructions: 6000001 cycles: 1921519 heartbeat IPC: 3.15027 cumulative IPC: 3.12253 (Simulation time: 0 hr 0 min 18 sec) 
updateCurrDst(10760)
updateCurrDst(10968)
updateCurrDst(11185)
updateCurrDst(11201)
updateCurrDst(11266)
updateCurrDst(11478)
updateCurrDst(11637)
updateCurrDst(11704)
updateCurrDst(11721)
updateCurrDst(11807)
updateCurrDst(12351)
updateCurrDst(12424)
updateCurrDst(12549)
updateCurrDst(12562)
updateCurrDst(12581)
updateCurrDst(12605)
updateCurrDst(12634)
updateCurrDst(12658)
updateCurrDst(12755)
Heartbeat CPU 0 instructions: 7000000 cycles: 2238582 heartbeat IPC: 3.15394 cumulative IPC: 3.12698 (Simulation time: 0 hr 0 min 21 sec) 
updateCurrDst(13064)
updateCurrDst(13163)
updateCurrDst(13273)
updateCurrDst(13566)
updateCurrDst(13756)
updateCurrDst(13848)
updateCurrDst(14076)
updateCurrDst(14201)
updateCurrDst(14225)
updateCurrDst(14245)
updateCurrDst(14260)
updateCurrDst(14374)
updateCurrDst(14381)
updateCurrDst(14390)
updateCurrDst(14499)
updateCurrDst(14614)
updateCurrDst(14641)
updateCurrDst(14649)
updateCurrDst(14719)
updateCurrDst(14802)
Heartbeat CPU 0 instructions: 8000003 cycles: 2555355 heartbeat IPC: 3.15684 cumulative IPC: 3.13068 (Simulation time: 0 hr 0 min 23 sec) 
updateCurrDst(14924)
updateCurrDst(15178)
updateCurrDst(15190)
updateCurrDst(15274)
updateCurrDst(15388)
updateCurrDst(15542)
updateCurrDst(15548)
updateCurrDst(15572)
updateCurrDst(15577)
updateCurrDst(15730)
updateCurrDst(15763)
updateCurrDst(15809)
updateCurrDst(15814)
updateCurrDst(15842)
updateCurrDst(15887)
updateCurrDst(15894)
updateCurrDst(15951)
updateCurrDst(15976)
updateCurrDst(16058)
updateCurrDst(16087)
updateCurrDst(16123)
updateCurrDst(16148)
updateCurrDst(16238)
updateCurrDst(16334)
updateCurrDst(16541)
updateCurrDst(16579)
updateCurrDst(16722)
updateCurrDst(16732)
updateCurrDst(16765)
updateCurrDst(16903)
updateCurrDst(16961)
Heartbeat CPU 0 instructions: 9000001 cycles: 2872638 heartbeat IPC: 3.15175 cumulative IPC: 3.13301 (Simulation time: 0 hr 0 min 26 sec) 
updateCurrDst(17063)
updateCurrDst(17269)
updateCurrDst(17280)
updateCurrDst(17302)
updateCurrDst(17369)
updateCurrDst(17499)
updateCurrDst(17699)
updateCurrDst(17838)
updateCurrDst(18142)
updateCurrDst(18493)
updateCurrDst(18608)
updateCurrDst(18749)
updateCurrDst(18888)
updateCurrDst(18909)
updateCurrDst(19040)
Heartbeat CPU 0 instructions: 10000002 cycles: 3189595 heartbeat IPC: 3.15501 cumulative IPC: 3.1352 (Simulation time: 0 hr 0 min 29 sec) 

Warmup complete CPU 0 instructions: 10000002 cycles: 3189595 (Simulation time: 0 hr 0 min 29 sec) 

updateCurrDst(19320)
updateCurrDst(19323)
updateCurrDst(19325)
updateCurrDst(19511)
updateCurrDst(19539)
updateCurrDst(19609)
updateCurrDst(19715)
updateCurrDst(19717)
updateCurrDst(19743)
updateCurrDst(19882)
updateCurrDst(20074)
updateCurrDst(20207)
updateCurrDst(20521)
updateCurrDst(20697)
updateCurrDst(20723)
updateCurrDst(20898)
updateCurrDst(20957)
updateCurrDst(21000)
updateCurrDst(21009)
updateCurrDst(21049)
updateCurrDst(21095)
Heartbeat CPU 0 instructions: 11000000 cycles: 6153152 heartbeat IPC: 0.337432 cumulative IPC: 0.337432 (Simulation time: 0 hr 0 min 32 sec) 
updateCurrDst(21272)
updateCurrDst(21614)
updateCurrDst(21693)
updateCurrDst(21975)
updateCurrDst(22102)
updateCurrDst(22157)
updateCurrDst(22243)
updateCurrDst(22311)
updateCurrDst(22382)
updateCurrDst(22592)
updateCurrDst(22609)
updateCurrDst(22774)
updateCurrDst(22820)
updateCurrDst(22949)
updateCurrDst(23122)
Heartbeat CPU 0 instructions: 12000001 cycles: 9119230 heartbeat IPC: 0.337146 cumulative IPC: 0.337289 (Simulation time: 0 hr 0 min 36 sec) 
updateCurrDst(23269)
updateCurrDst(23398)
updateCurrDst(23591)
updateCurrDst(23685)
updateCurrDst(24035)
updateCurrDst(24151)
updateCurrDst(24293)
updateCurrDst(24302)
updateCurrDst(24371)
updateCurrDst(24434)
updateCurrDst(24548)
updateCurrDst(24583)
updateCurrDst(24698)
updateCurrDst(24709)
updateCurrDst(24888)
updateCurrDst(25022)
Heartbeat CPU 0 instructions: 13000000 cycles: 12066011 heartbeat IPC: 0.339353 cumulative IPC: 0.337974 (Simulation time: 0 hr 0 min 39 sec) 
updateCurrDst(25306)
updateCurrDst(25488)
updateCurrDst(25834)
updateCurrDst(25953)
updateCurrDst(25955)
updateCurrDst(26068)
updateCurrDst(26159)
updateCurrDst(26193)
updateCurrDst(26225)
updateCurrDst(26247)
updateCurrDst(26372)
updateCurrDst(26405)
updateCurrDst(26630)
updateCurrDst(26712)
updateCurrDst(26878)
updateCurrDst(26920)
updateCurrDst(27058)
updateCurrDst(27085)
updateCurrDst(27114)
updateCurrDst(27141)
updateCurrDst(27150)
updateCurrDst(27154)
updateCurrDst(27228)
updateCurrDst(27242)
updateCurrDst(27261)
updateCurrDst(27268)
updateCurrDst(27307)
updateCurrDst(27373)
updateCurrDst(27379)
Heartbeat CPU 0 instructions: 14000000 cycles: 15005193 heartbeat IPC: 0.340231 cumulative IPC: 0.338535 (Simulation time: 0 hr 0 min 42 sec) 
updateCurrDst(27426)
updateCurrDst(27431)
updateCurrDst(27456)
updateCurrDst(27460)
updateCurrDst(27529)
updateCurrDst(27614)
updateCurrDst(27634)
updateCurrDst(27637)
updateCurrDst(27799)
updateCurrDst(27940)
updateCurrDst(28074)
updateCurrDst(28097)
updateCurrDst(28152)
updateCurrDst(28227)
updateCurrDst(28258)
updateCurrDst(28306)
updateCurrDst(28381)
updateCurrDst(28383)
updateCurrDst(28550)
updateCurrDst(28644)
updateCurrDst(28690)
updateCurrDst(28711)
updateCurrDst(28742)
updateCurrDst(28765)
updateCurrDst(28800)
updateCurrDst(28893)
updateCurrDst(28905)
updateCurrDst(28926)
updateCurrDst(28986)
updateCurrDst(29017)
updateCurrDst(29340)
Heartbeat CPU 0 instructions: 15000000 cycles: 17946505 heartbeat IPC: 0.339984 cumulative IPC: 0.338824 (Simulation time: 0 hr 0 min 45 sec) 
updateCurrDst(29475)
updateCurrDst(29572)
updateCurrDst(29577)
updateCurrDst(29671)
updateCurrDst(29679)
updateCurrDst(29891)
updateCurrDst(29985)
updateCurrDst(30085)
updateCurrDst(30138)
updateCurrDst(30171)
updateCurrDst(30193)
updateCurrDst(30270)
updateCurrDst(30539)
updateCurrDst(30663)
updateCurrDst(30789)
updateCurrDst(30887)
updateCurrDst(30926)
updateCurrDst(30963)
updateCurrDst(30973)
updateCurrDst(31152)
updateCurrDst(31332)
updateCurrDst(31363)
Heartbeat CPU 0 instructions: 16000002 cycles: 20885553 heartbeat IPC: 0.340247 cumulative IPC: 0.33906 (Simulation time: 0 hr 0 min 48 sec) 
updateCurrDst(31750)
updateCurrDst(31892)
updateCurrDst(31915)
updateCurrDst(31944)
updateCurrDst(32124)
updateCurrDst(32160)
updateCurrDst(32165)
updateCurrDst(32301)
updateCurrDst(32320)
updateCurrDst(32358)
updateCurrDst(32369)
updateCurrDst(32470)
updateCurrDst(32650)
updateCurrDst(32698)
*** Reached end of trace for Core: 0 Repeating trace: ./tracer/pull_u15_k3.xzafter: 16611664
PIN_registerGraphs(random_u15_k3.sg,1)
Graphh Number of Nodes: 32768
Heartbeat CPU 0 instructions: 17000001 cycles: 23740380 heartbeat IPC: 0.350284 cumulative IPC: 0.34062 (Simulation time: 0 hr 0 min 52 sec) 
PIN_updateRegBaseBound( 94260931567824, 94260931698896)
updateCurrDst(192)
updateCurrDst(310)
updateCurrDst(530)
updateCurrDst(564)
updateCurrDst(764)
updateCurrDst(802)
updateCurrDst(860)
updateCurrDst(1083)
Heartbeat CPU 0 instructions: 18000000 cycles: 25997617 heartbeat IPC: 0.443019 cumulative IPC: 0.350754 (Simulation time: 0 hr 0 min 55 sec) 
updateCurrDst(1233)
updateCurrDst(1400)
updateCurrDst(1415)
updateCurrDst(1571)
updateCurrDst(1605)
updateCurrDst(1713)
updateCurrDst(1807)
updateCurrDst(1842)
updateCurrDst(1896)
updateCurrDst(2047)
updateCurrDst(2111)
updateCurrDst(2135)
updateCurrDst(2324)
updateCurrDst(2363)
updateCurrDst(2453)
updateCurrDst(2572)
updateCurrDst(2644)
updateCurrDst(2645)
updateCurrDst(2654)
updateCurrDst(2676)
updateCurrDst(2681)
updateCurrDst(2750)
updateCurrDst(2776)
updateCurrDst(2871)
updateCurrDst(2993)
updateCurrDst(3146)
updateCurrDst(3168)
Heartbeat CPU 0 instructions: 19000000 cycles: 28877747 heartbeat IPC: 0.347207 cumulative IPC: 0.350356 (Simulation time: 0 hr 0 min 59 sec) 
updateCurrDst(3262)
updateCurrDst(3410)
updateCurrDst(3440)
updateCurrDst(3441)
updateCurrDst(3446)
updateCurrDst(3507)
updateCurrDst(3716)
updateCurrDst(3852)
updateCurrDst(4040)
updateCurrDst(4109)
updateCurrDst(4137)
updateCurrDst(4144)
updateCurrDst(4251)
updateCurrDst(4297)
updateCurrDst(4315)
updateCurrDst(4397)
updateCurrDst(4417)
updateCurrDst(4423)
updateCurrDst(4520)
updateCurrDst(4544)
updateCurrDst(4581)
updateCurrDst(4662)
updateCurrDst(4943)
updateCurrDst(5041)
updateCurrDst(5053)
updateCurrDst(5185)
updateCurrDst(5229)
Heartbeat CPU 0 instructions: 20000002 cycles: 31755330 heartbeat IPC: 0.347515 cumulative IPC: 0.35007 (Simulation time: 0 hr 1 min 2 sec) 
Finished CPU 0 instructions: 10000000 cycles: 28565735 cumulative IPC: 0.35007 (Simulation time: 0 hr 1 min 2 sec) 

ChampSim completed all CPUs

Region of Interest Statistics

CPU 0 cumulative IPC: 0.35007 instructions: 10000000 cycles: 28565735

Total ROB STALLS:                    4018096
STLB MISS ROB STALLS:                    101
L1D  LOAD MISS ROB STALLS:             88981  Translation MISS ROB STALLS:             0
L2C  LOAD MISS ROB STALLS:             11795  Translation MISS ROB STALLS:             0
LLC  LOAD MISS ROB STALLS:              5821  Translation MISS ROB STALLS:             0

ITLB TOTAL     ACCESS:           1422110  HIT:    1422073  MISS:         37  HIT %:    99.9974  MISS %: 0.00260177   MPKI: 0.0037
ITLB LOAD TRANSLATION ACCESS:    1422110  HIT:    1422073  MISS:         37  HIT %:    99.9974  MISS %: 0.00260177   MPKI: 0.0037
ITLB AVERAGE MISS LATENCY:       166.405 cycles
ITLB RQ ACCESS:     1544081	FORWARD:           0	MERGED:       121969	TO_CACHE:    1422112

DTLB TOTAL     ACCESS:           3059240  HIT:    3058795  MISS:        445  HIT %:    99.9855  MISS %:  0.0145461   MPKI: 0.0445
DTLB LOAD TRANSLATION ACCESS:    3059240  HIT:    3058795  MISS:        445  HIT %:    99.9855  MISS %:  0.0145461   MPKI: 0.0445
DTLB AVERAGE MISS LATENCY:       67.1034 cycles
DTLB RQ ACCESS:     4246563	FORWARD:           0	MERGED:      1187278	TO_CACHE:    3059285

STLB TOTAL     ACCESS:               482  HIT:        353  MISS:        129  HIT %:    73.2365  MISS %:    26.7635   MPKI: 0.0129
STLB LOAD TRANSLATION ACCESS:        482  HIT:        353  MISS:        129  HIT %:    73.2365  MISS %:    26.7635   MPKI: 0.0129
STLB AVERAGE MISS LATENCY:       245.574 cycles
STLB RQ ACCESS:         482	FORWARD:           0	MERGED:            0	TO_CACHE:        482

PSCL5 TOTAL     ACCESS:               129  HIT:        129  MISS:          0  HIT %:        100  MISS %:          0   MPKI: 0
PSCL5 LOAD TRANSLATION ACCESS:        129  HIT:        129  MISS:          0  HIT %:        100  MISS %:          0   MPKI: 0

PSCL4 TOTAL     ACCESS:               129  HIT:        129  MISS:          0  HIT %:        100  MISS %:          0   MPKI: 0
PSCL4 LOAD TRANSLATION ACCESS:        129  HIT:        129  MISS:          0  HIT %:        100  MISS %:          0   MPKI: 0

PSCL3 TOTAL     ACCESS:               129  HIT:        129  MISS:          0  HIT %:        100  MISS %:          0   MPKI: 0
PSCL3 LOAD TRANSLATION ACCESS:        129  HIT:        129  MISS:          0  HIT %:        100  MISS %:          0   MPKI: 0

PSCL2 TOTAL     ACCESS:               129  HIT:        128  MISS:          1  HIT %:    99.2248  MISS %:   0.775194   MPKI: 0.0001
PSCL2 LOAD TRANSLATION ACCESS:        129  HIT:        128  MISS:          1  HIT %:    99.2248  MISS %:   0.775194   MPKI: 0.0001

L1D TOTAL     ACCESS:           4238476  HIT:    4144055  MISS:      94421  HIT %:    97.7723  MISS %:    2.22771   MPKI: 9.4421  USED:      37453  UNUSED:      56968
L1D LOAD      ACCESS:           1924626  HIT:    1835524  MISS:      89102  HIT %:    95.3704  MISS %:    4.62957   MPKI: 8.9102  USED:      37407  UNUSED:      51695
L1D RFO       ACCESS:           2313850  HIT:    2308531  MISS:       5319  HIT %:    99.7701  MISS %:   0.229877   MPKI: 0.5319
L1D PTL1 TRANSLATION ACCESS:          0  HIT:          0  MISS:          0  HIT %:       -nan  MISS %:       -nan   MPKI: 0
L1D PTL2 TRANSLATION ACCESS:          0  HIT:          0  MISS:          0  HIT %:       -nan  MISS %:       -nan   MPKI: 0
L1D PTL3 TRANSLATION ACCESS:          0  HIT:          0  MISS:          0  HIT %:       -nan  MISS %:       -nan   MPKI: 0
L1D PTL4 TRANSLATION ACCESS:          0  HIT:          0  MISS:          0  HIT %:       -nan  MISS %:       -nan   MPKI: 0
L1D PTL5 TRANSLATION ACCESS:          0  HIT:          0  MISS:          0  HIT %:       -nan  MISS %:       -nan   MPKI: 0
L1D TOTAL EVICTIONS:              94421  TRANSLATION EVICTIONS:          0  TRANSLATION EVICTING TRANSALTION:          0  TRANSLATION EVICTING LOAD:          0  LOAD EVICTING TRANSALTION:          0  LOAD EVICTING LOAD:       88191
L1D AVERAGE MISS LATENCY:       24.3259 cycles  AVERAGE LOAD MISS LATENCY:       24.1728 cycles  AVERAGE LOAD TRANSLATION MISS LATENCY:          -nan cycles
L1D RQ ACCESS:     2476643	FORWARD:           0	MERGED:       310890	TO_CACHE:    1924673
L1D WQ ACCESS:     2366402	FORWARD:      241080	MERGED:        44512	TO_CACHE:    2321890

L1I TOTAL     ACCESS:           1544066  HIT:    1543864  MISS:        202  HIT %:    99.9869  MISS %:  0.0130823   MPKI: 0.0202
L1I LOAD      ACCESS:           1544066  HIT:    1543864  MISS:        202  HIT %:    99.9869  MISS %:  0.0130823   MPKI: 0.0202
L1I AVERAGE MISS LATENCY:       146.554 cycles
L1I RQ ACCESS:     2403216	FORWARD:           0	MERGED:       859135	TO_CACHE:    1544081

L2C TOTAL     ACCESS:            101219  HIT:      87104  MISS:      14115  HIT %:     86.055  MISS %:     13.945   MPKI: 1.4115  USED:        533  UNUSED:      13582
L2C LOAD      ACCESS:             89304  HIT:      77223  MISS:      12081  HIT %:    86.4721  MISS %:    13.5279   MPKI: 1.2081  USED:        440  UNUSED:      13403
L2C RFO       ACCESS:              5319  HIT:       3292  MISS:       2027  HIT %:    61.8913  MISS %:    38.1087   MPKI: 0.2027
L2C WRITEBACK ACCESS:              6596  HIT:       6589  MISS:          7  HIT %:    99.8939  MISS %:   0.106125   MPKI: 0.0007
L2C PTL1 TRANSLATION ACCESS:          0  HIT:          0  MISS:          0  HIT %:       -nan  MISS %:       -nan   MPKI: 0
L2C PTL2 TRANSLATION ACCESS:          0  HIT:          0  MISS:          0  HIT %:       -nan  MISS %:       -nan   MPKI: 0
L2C PTL3 TRANSLATION ACCESS:          0  HIT:          0  MISS:          0  HIT %:       -nan  MISS %:       -nan   MPKI: 0
L2C PTL4 TRANSLATION ACCESS:          0  HIT:          0  MISS:          0  HIT %:       -nan  MISS %:       -nan   MPKI: 0
L2C PTL5 TRANSLATION ACCESS:          0  HIT:          0  MISS:          0  HIT %:       -nan  MISS %:       -nan   MPKI: 0
L2C TOTAL EVICTIONS:              14115  TRANSLATION EVICTIONS:          0  TRANSLATION EVICTING TRANSALTION:          0  TRANSLATION EVICTING LOAD:          0  LOAD EVICTING TRANSALTION:          0  LOAD EVICTING LOAD:       11821
L2C AVERAGE MISS LATENCY:       64.2794 cycles  AVERAGE LOAD MISS LATENCY:       69.8664 cycles  AVERAGE LOAD TRANSLATION MISS LATENCY:          -nan cycles
L2C RQ ACCESS:       94623	FORWARD:           0	MERGED:            0	TO_CACHE:      94623
L2C WQ ACCESS:        6596	FORWARD:           0	MERGED:            0	TO_CACHE:       6596

LLC TOTAL     ACCESS:             16074  HIT:      10072  MISS:       6002  HIT %:    62.6602  MISS %:    37.3398   MPKI: 0.6002  USED:          0  UNUSED:          0
LLC LOAD      ACCESS:             12081  HIT:       6094  MISS:       5987  HIT %:    50.4428  MISS %:    49.5572   MPKI: 0.5987  USED:          0  UNUSED:          0
LLC RFO       ACCESS:              2027  HIT:       2012  MISS:         15  HIT %:      99.26  MISS %:    0.74001   MPKI: 0.0015
LLC WRITEBACK ACCESS:              1966  HIT:       1966  MISS:          0  HIT %:        100  MISS %:          0   MPKI: 0
LLC PTL1 TRANSLATION ACCESS:          0  HIT:          0  MISS:          0  HIT %:       -nan  MISS %:       -nan   MPKI: 0
LLC PTL2 TRANSLATION ACCESS:          0  HIT:          0  MISS:          0  HIT %:       -nan  MISS %:       -nan   MPKI: 0
LLC PTL3 TRANSLATION ACCESS:          0  HIT:          0  MISS:          0  HIT %:       -nan  MISS %:       -nan   MPKI: 0
LLC PTL4 TRANSLATION ACCESS:          0  HIT:          0  MISS:          0  HIT %:       -nan  MISS %:       -nan   MPKI: 0
LLC PTL5 TRANSLATION ACCESS:          0  HIT:          0  MISS:          0  HIT %:       -nan  MISS %:       -nan   MPKI: 0
LLC TOTAL EVICTIONS:                  0  TRANSLATION EVICTIONS:          0  TRANSLATION EVICTING TRANSALTION:          0  TRANSLATION EVICTING LOAD:          0  LOAD EVICTING TRANSALTION:          0  LOAD EVICTING LOAD:           0
LLC AVERAGE MISS LATENCY:       80.5736 cycles  AVERAGE LOAD MISS LATENCY:        80.383 cycles  AVERAGE LOAD TRANSLATION MISS LATENCY:          -nan cycles
LLC RQ ACCESS:       14108	FORWARD:           0	MERGED:            0	TO_CACHE:      14108
LLC WQ ACCESS:        1966	FORWARD:           0	MERGED:            0	TO_CACHE:       1966


RAW hits: 1867278
Loads Generated: 4343921
Loads sent to L1D: 2476643
Stores Generated: 2366400
Stores sent to L1D: 2366402
Major fault: 0 Minor fault: 509
Allocated PAGES: 509
IRREG DATA L1D ACCESS: 259898
L2C ACCESSES: 155162
L2C MISSES: 10

DRAM Statistics
 CHANNEL 0
 RQ ROW_BUFFER_HIT:       5380  ROW_BUFFER_MISS:        751
 DBUS_CONGESTED:          0
 WQ ROW_BUFFER_HIT:          0  ROW_BUFFER_MISS:          0  FULL:          0

 AVG_CONGESTED_CYCLE: -

CPU 0 Branch Prediction Accuracy: 98.5122% MPKI: 1.925 Average ROB Occupancy at Mispredict: 14.2034
Branch types
NOT_BRANCH: 8705778 87.0578%
BRANCH_DIRECT_JUMP: 0 0%
BRANCH_INDIRECT: 208393 2.08393%
BRANCH_CONDITIONAL: 0 0%
BRANCH_DIRECT_CALL: 18993 0.18993%
BRANCH_INDIRECT_CALL: 390037 3.90037%
BRANCH_RETURN: 409031 4.09031%
BRANCH_OTHER: 267418 2.67418%

DRAM PAGES: 1048576
Allocated PAGES: 509
