
*** ChampSim Multicore Out-of-Order Simulator ***

Warmup Instructions: 34000000
Simulation Instructions: 34000000
Number of CPUs: 1
LLC sets: 2048
LLC ways: 16
Off-chip DRAM Size: 4096 MB Channels: 1 Width: 64-bit Data Rate: 6400 MT/s
CPU 0 runs ./tracer/pull_u17_k3.xz
.xz
BTB has LRU replacement policy
ITLB has LRU replacement policy
DTLB has LRU replacement policy
STLB has LRU replacement policy
L1I has LRU replacement policy
L1D has LRU replacement policy
L2C has LRU replacement policy
Initialize DRRIP state for LLC
Heartbeat CPU 0 instructions: 1000000 cycles: 350520 heartbeat IPC: 2.8529 cumulative IPC: 2.8529 (Simulation time: 0 hr 0 min 2 sec) 
Heartbeat CPU 0 instructions: 2000003 cycles: 701020 heartbeat IPC: 2.85308 cumulative IPC: 2.85299 (Simulation time: 0 hr 0 min 5 sec) 
Heartbeat CPU 0 instructions: 3000002 cycles: 1051514 heartbeat IPC: 2.85311 cumulative IPC: 2.85303 (Simulation time: 0 hr 0 min 7 sec) 
PIN_registerGraphs(random_u17_k3.sg,1)
Graphh Number of Nodes: 131072
Heartbeat CPU 0 instructions: 4000000 cycles: 1394730 heartbeat IPC: 2.91361 cumulative IPC: 2.86794 (Simulation time: 0 hr 0 min 9 sec) 
Heartbeat CPU 0 instructions: 5000000 cycles: 1727996 heartbeat IPC: 3.00061 cumulative IPC: 2.89353 (Simulation time: 0 hr 0 min 11 sec) 
PIN_updateRegBaseBound( 93967752388816, 93967752913104)
updateCurrDst(82)
updateCurrDst(191)
updateCurrDst(348)
updateCurrDst(381)
updateCurrDst(490)
updateCurrDst(495)
updateCurrDst(645)
Heartbeat CPU 0 instructions: 6000001 cycles: 2056684 heartbeat IPC: 3.0424 cumulative IPC: 2.91732 (Simulation time: 0 hr 0 min 13 sec) 
updateCurrDst(722)
updateCurrDst(741)
updateCurrDst(780)
updateCurrDst(796)
updateCurrDst(902)
updateCurrDst(969)
updateCurrDst(992)
updateCurrDst(1078)
updateCurrDst(1108)
updateCurrDst(1243)
updateCurrDst(1573)
updateCurrDst(1769)
updateCurrDst(1898)
updateCurrDst(1977)
updateCurrDst(2096)
updateCurrDst(2134)
updateCurrDst(2161)
updateCurrDst(2187)
updateCurrDst(2198)
updateCurrDst(2371)
updateCurrDst(2387)
updateCurrDst(2714)
updateCurrDst(2741)
Heartbeat CPU 0 instructions: 7000002 cycles: 2376061 heartbeat IPC: 3.1311 cumulative IPC: 2.94605 (Simulation time: 0 hr 0 min 15 sec) 
updateCurrDst(2869)
updateCurrDst(2968)
updateCurrDst(3112)
updateCurrDst(3120)
updateCurrDst(3138)
updateCurrDst(3171)
updateCurrDst(3295)
updateCurrDst(3391)
updateCurrDst(3720)
updateCurrDst(3781)
updateCurrDst(3841)
updateCurrDst(4059)
updateCurrDst(4620)
updateCurrDst(4745)
updateCurrDst(4752)
Heartbeat CPU 0 instructions: 8000000 cycles: 2695067 heartbeat IPC: 3.13473 cumulative IPC: 2.96839 (Simulation time: 0 hr 0 min 18 sec) 
updateCurrDst(4909)
updateCurrDst(4956)
updateCurrDst(4964)
updateCurrDst(4974)
updateCurrDst(4999)
updateCurrDst(5125)
updateCurrDst(5338)
updateCurrDst(5377)
updateCurrDst(5477)
updateCurrDst(5504)
updateCurrDst(5569)
updateCurrDst(6095)
updateCurrDst(6306)
updateCurrDst(6360)
updateCurrDst(6367)
updateCurrDst(6375)
updateCurrDst(6389)
updateCurrDst(6595)
updateCurrDst(6720)
updateCurrDst(6852)
updateCurrDst(6864)
updateCurrDst(6908)
Heartbeat CPU 0 instructions: 9000001 cycles: 3014553 heartbeat IPC: 3.13003 cumulative IPC: 2.98552 (Simulation time: 0 hr 0 min 21 sec) 
updateCurrDst(6992)
updateCurrDst(7356)
updateCurrDst(7502)
updateCurrDst(7563)
updateCurrDst(7576)
updateCurrDst(7632)
updateCurrDst(7721)
updateCurrDst(7726)
updateCurrDst(7913)
updateCurrDst(7946)
updateCurrDst(8026)
updateCurrDst(8310)
updateCurrDst(8324)
updateCurrDst(8441)
updateCurrDst(8526)
updateCurrDst(8579)
updateCurrDst(8580)
updateCurrDst(8612)
updateCurrDst(8842)
Heartbeat CPU 0 instructions: 10000001 cycles: 3333892 heartbeat IPC: 3.13147 cumulative IPC: 2.9995 (Simulation time: 0 hr 0 min 24 sec) 
updateCurrDst(9058)
updateCurrDst(9168)
updateCurrDst(9194)
updateCurrDst(9315)
updateCurrDst(9319)
updateCurrDst(9332)
updateCurrDst(9353)
updateCurrDst(9463)
updateCurrDst(9643)
updateCurrDst(9678)
updateCurrDst(9751)
updateCurrDst(9860)
updateCurrDst(9911)
updateCurrDst(9989)
updateCurrDst(10080)
updateCurrDst(10147)
updateCurrDst(10339)
updateCurrDst(10343)
updateCurrDst(10397)
updateCurrDst(10463)
updateCurrDst(10714)
updateCurrDst(10786)
updateCurrDst(10868)
updateCurrDst(10872)
updateCurrDst(10936)
updateCurrDst(10943)
updateCurrDst(11036)
updateCurrDst(11047)
Heartbeat CPU 0 instructions: 11000000 cycles: 3653073 heartbeat IPC: 3.13302 cumulative IPC: 3.01116 (Simulation time: 0 hr 0 min 27 sec) 
updateCurrDst(11139)
updateCurrDst(11145)
updateCurrDst(11162)
updateCurrDst(11181)
updateCurrDst(11218)
updateCurrDst(11229)
updateCurrDst(11335)
updateCurrDst(11374)
updateCurrDst(11398)
updateCurrDst(11536)
updateCurrDst(11617)
updateCurrDst(11741)
updateCurrDst(11768)
updateCurrDst(11796)
updateCurrDst(11863)
updateCurrDst(11928)
updateCurrDst(12055)
updateCurrDst(12219)
updateCurrDst(12278)
updateCurrDst(12550)
updateCurrDst(13032)
Heartbeat CPU 0 instructions: 12000002 cycles: 3972363 heartbeat IPC: 3.13196 cumulative IPC: 3.02087 (Simulation time: 0 hr 0 min 29 sec) 
updateCurrDst(13232)
updateCurrDst(13557)
updateCurrDst(13642)
updateCurrDst(13692)
updateCurrDst(13982)
updateCurrDst(14128)
updateCurrDst(14168)
updateCurrDst(14174)
updateCurrDst(14341)
updateCurrDst(14524)
updateCurrDst(14828)
updateCurrDst(14858)
updateCurrDst(14891)
Heartbeat CPU 0 instructions: 13000001 cycles: 4291531 heartbeat IPC: 3.13314 cumulative IPC: 3.02922 (Simulation time: 0 hr 0 min 32 sec) 
updateCurrDst(15362)
updateCurrDst(15471)
updateCurrDst(15569)
updateCurrDst(15571)
updateCurrDst(15730)
updateCurrDst(15859)
updateCurrDst(15940)
updateCurrDst(15962)
updateCurrDst(16153)
updateCurrDst(16189)
updateCurrDst(16275)
updateCurrDst(16280)
updateCurrDst(16561)
updateCurrDst(16620)
updateCurrDst(16758)
updateCurrDst(16816)
updateCurrDst(16899)
updateCurrDst(16947)
updateCurrDst(16978)
updateCurrDst(17187)
updateCurrDst(17271)
Heartbeat CPU 0 instructions: 14000003 cycles: 4610605 heartbeat IPC: 3.13408 cumulative IPC: 3.03648 (Simulation time: 0 hr 0 min 35 sec) 
updateCurrDst(17483)
updateCurrDst(17521)
updateCurrDst(17681)
updateCurrDst(17796)
updateCurrDst(17951)
updateCurrDst(18235)
updateCurrDst(18265)
updateCurrDst(18452)
updateCurrDst(18664)
updateCurrDst(18666)
updateCurrDst(18685)
updateCurrDst(18821)
updateCurrDst(18913)
updateCurrDst(18935)
updateCurrDst(18959)
updateCurrDst(19056)
updateCurrDst(19090)
updateCurrDst(19108)
updateCurrDst(19141)
updateCurrDst(19342)
Heartbeat CPU 0 instructions: 15000002 cycles: 4930073 heartbeat IPC: 3.1302 cumulative IPC: 3.04255 (Simulation time: 0 hr 0 min 38 sec) 
updateCurrDst(19424)
updateCurrDst(19908)
updateCurrDst(19929)
updateCurrDst(19937)
updateCurrDst(20051)
updateCurrDst(20065)
updateCurrDst(20076)
updateCurrDst(20100)
updateCurrDst(20152)
updateCurrDst(20237)
updateCurrDst(20267)
updateCurrDst(20397)
updateCurrDst(20471)
updateCurrDst(20576)
updateCurrDst(20605)
updateCurrDst(20637)
updateCurrDst(20671)
updateCurrDst(20936)
updateCurrDst(20960)
updateCurrDst(21025)
updateCurrDst(21305)
updateCurrDst(21439)
Heartbeat CPU 0 instructions: 16000001 cycles: 5249360 heartbeat IPC: 3.13198 cumulative IPC: 3.04799 (Simulation time: 0 hr 0 min 41 sec) 
updateCurrDst(21485)
updateCurrDst(21523)
updateCurrDst(21574)
updateCurrDst(21609)
updateCurrDst(21772)
updateCurrDst(21807)
updateCurrDst(21817)
updateCurrDst(21913)
updateCurrDst(22007)
updateCurrDst(22049)
updateCurrDst(22222)
updateCurrDst(22343)
updateCurrDst(22460)
updateCurrDst(22472)
updateCurrDst(22548)
updateCurrDst(22720)
updateCurrDst(23123)
updateCurrDst(23153)
updateCurrDst(23180)
updateCurrDst(23224)
updateCurrDst(23278)
updateCurrDst(23430)
Heartbeat CPU 0 instructions: 17000000 cycles: 5568782 heartbeat IPC: 3.13065 cumulative IPC: 3.05273 (Simulation time: 0 hr 0 min 44 sec) 
updateCurrDst(23566)
updateCurrDst(23724)
updateCurrDst(23737)
updateCurrDst(23913)
updateCurrDst(24037)
updateCurrDst(24235)
updateCurrDst(24269)
updateCurrDst(24550)
updateCurrDst(24596)
updateCurrDst(24817)
updateCurrDst(24883)
updateCurrDst(24910)
updateCurrDst(24953)
updateCurrDst(24984)
updateCurrDst(24989)
updateCurrDst(25064)
updateCurrDst(25125)
updateCurrDst(25288)
updateCurrDst(25364)
updateCurrDst(25449)
updateCurrDst(25554)
Heartbeat CPU 0 instructions: 18000001 cycles: 5887790 heartbeat IPC: 3.13472 cumulative IPC: 3.05717 (Simulation time: 0 hr 0 min 47 sec) 
updateCurrDst(25709)
updateCurrDst(25761)
updateCurrDst(25776)
updateCurrDst(25796)
updateCurrDst(25843)
updateCurrDst(26158)
updateCurrDst(26183)
updateCurrDst(26263)
updateCurrDst(26413)
updateCurrDst(26425)
updateCurrDst(26504)
updateCurrDst(26799)
updateCurrDst(26891)
updateCurrDst(27151)
updateCurrDst(27186)
updateCurrDst(27212)
updateCurrDst(27312)
updateCurrDst(27511)
updateCurrDst(27577)
updateCurrDst(27586)
updateCurrDst(27646)
Heartbeat CPU 0 instructions: 19000001 cycles: 6207102 heartbeat IPC: 3.13173 cumulative IPC: 3.06101 (Simulation time: 0 hr 0 min 50 sec) 
updateCurrDst(27743)
updateCurrDst(27954)
updateCurrDst(28058)
updateCurrDst(28235)
updateCurrDst(28288)
updateCurrDst(28340)
updateCurrDst(28383)
updateCurrDst(28502)
updateCurrDst(28521)
updateCurrDst(28830)
updateCurrDst(29151)
updateCurrDst(29155)
updateCurrDst(29218)
updateCurrDst(29231)
updateCurrDst(29309)
updateCurrDst(29385)
updateCurrDst(29409)
updateCurrDst(29413)
updateCurrDst(29454)
updateCurrDst(29521)
updateCurrDst(29529)
updateCurrDst(29652)
updateCurrDst(29709)
Heartbeat CPU 0 instructions: 20000002 cycles: 6526380 heartbeat IPC: 3.13207 cumulative IPC: 3.06449 (Simulation time: 0 hr 0 min 53 sec) 
updateCurrDst(29890)
updateCurrDst(29913)
updateCurrDst(30003)
updateCurrDst(30265)
updateCurrDst(30322)
updateCurrDst(30340)
updateCurrDst(30376)
updateCurrDst(30406)
updateCurrDst(30669)
updateCurrDst(30741)
updateCurrDst(30783)
updateCurrDst(30896)
updateCurrDst(30899)
updateCurrDst(31150)
updateCurrDst(31399)
updateCurrDst(31482)
updateCurrDst(31539)
updateCurrDst(31557)
updateCurrDst(31736)
updateCurrDst(31786)
Heartbeat CPU 0 instructions: 21000001 cycles: 6845432 heartbeat IPC: 3.13428 cumulative IPC: 3.06774 (Simulation time: 0 hr 0 min 56 sec) 
updateCurrDst(32174)
updateCurrDst(32398)
updateCurrDst(32467)
updateCurrDst(32568)
updateCurrDst(32575)
updateCurrDst(32798)
updateCurrDst(32843)
updateCurrDst(33029)
updateCurrDst(33237)
updateCurrDst(33456)
updateCurrDst(33475)
updateCurrDst(33501)
updateCurrDst(33596)
updateCurrDst(33817)
Heartbeat CPU 0 instructions: 22000000 cycles: 7164902 heartbeat IPC: 3.13018 cumulative IPC: 3.07052 (Simulation time: 0 hr 0 min 59 sec) 
updateCurrDst(34057)
updateCurrDst(34116)
updateCurrDst(34278)
updateCurrDst(34485)
updateCurrDst(34567)
updateCurrDst(34590)
updateCurrDst(34841)
updateCurrDst(34886)
updateCurrDst(34927)
updateCurrDst(34947)
updateCurrDst(34963)
updateCurrDst(34965)
updateCurrDst(34976)
updateCurrDst(34985)
updateCurrDst(35070)
updateCurrDst(35146)
updateCurrDst(35803)
updateCurrDst(35889)
Heartbeat CPU 0 instructions: 23000000 cycles: 7483960 heartbeat IPC: 3.13423 cumulative IPC: 3.07324 (Simulation time: 0 hr 1 min 2 sec) 
updateCurrDst(36113)
updateCurrDst(36260)
updateCurrDst(36376)
updateCurrDst(36594)
updateCurrDst(36644)
updateCurrDst(36657)
updateCurrDst(36669)
updateCurrDst(36770)
updateCurrDst(36943)
updateCurrDst(36982)
updateCurrDst(37063)
updateCurrDst(37091)
updateCurrDst(37151)
updateCurrDst(37312)
updateCurrDst(37397)
updateCurrDst(37440)
updateCurrDst(37550)
updateCurrDst(37577)
updateCurrDst(37869)
updateCurrDst(38040)
updateCurrDst(38049)
Heartbeat CPU 0 instructions: 24000000 cycles: 7803156 heartbeat IPC: 3.13287 cumulative IPC: 3.07568 (Simulation time: 0 hr 1 min 5 sec) 
updateCurrDst(38075)
updateCurrDst(38274)
updateCurrDst(38443)
updateCurrDst(38752)
updateCurrDst(38768)
updateCurrDst(38822)
updateCurrDst(38893)
updateCurrDst(39017)
updateCurrDst(39031)
updateCurrDst(39053)
updateCurrDst(39175)
updateCurrDst(39252)
updateCurrDst(39303)
updateCurrDst(39483)
updateCurrDst(39496)
updateCurrDst(39508)
updateCurrDst(39734)
updateCurrDst(39775)
updateCurrDst(39778)
updateCurrDst(39835)
updateCurrDst(39928)
updateCurrDst(39940)
updateCurrDst(40070)
Heartbeat CPU 0 instructions: 25000002 cycles: 8122370 heartbeat IPC: 3.1327 cumulative IPC: 3.07792 (Simulation time: 0 hr 1 min 9 sec) 
updateCurrDst(40340)
updateCurrDst(40729)
updateCurrDst(40991)
updateCurrDst(41016)
updateCurrDst(41115)
updateCurrDst(41181)
updateCurrDst(41568)
updateCurrDst(41718)
updateCurrDst(41787)
updateCurrDst(41802)
updateCurrDst(42003)
updateCurrDst(42047)
updateCurrDst(42104)
updateCurrDst(42114)
updateCurrDst(42115)
updateCurrDst(42136)
updateCurrDst(42154)
updateCurrDst(42188)
Heartbeat CPU 0 instructions: 26000000 cycles: 8441974 heartbeat IPC: 3.12887 cumulative IPC: 3.07985 (Simulation time: 0 hr 1 min 12 sec) 
updateCurrDst(42391)
updateCurrDst(42530)
updateCurrDst(42591)
updateCurrDst(42684)
updateCurrDst(42844)
updateCurrDst(42918)
updateCurrDst(43008)
updateCurrDst(43067)
updateCurrDst(43181)
updateCurrDst(43252)
updateCurrDst(43264)
updateCurrDst(43429)
updateCurrDst(43474)
updateCurrDst(43535)
updateCurrDst(43587)
updateCurrDst(43594)
updateCurrDst(43668)
updateCurrDst(43708)
updateCurrDst(43799)
updateCurrDst(43842)
updateCurrDst(43876)
updateCurrDst(43923)
updateCurrDst(43955)
updateCurrDst(44020)
updateCurrDst(44209)
Heartbeat CPU 0 instructions: 27000000 cycles: 8761507 heartbeat IPC: 3.12957 cumulative IPC: 3.08166 (Simulation time: 0 hr 1 min 15 sec) 
updateCurrDst(44362)
updateCurrDst(44556)
updateCurrDst(44564)
updateCurrDst(44761)
updateCurrDst(44767)
updateCurrDst(44876)
updateCurrDst(44914)
updateCurrDst(44920)
updateCurrDst(44942)
updateCurrDst(44988)
updateCurrDst(44991)
updateCurrDst(45000)
updateCurrDst(45037)
updateCurrDst(45067)
updateCurrDst(45075)
updateCurrDst(45131)
updateCurrDst(45229)
updateCurrDst(45444)
updateCurrDst(45498)
updateCurrDst(45652)
updateCurrDst(45674)
updateCurrDst(45843)
updateCurrDst(45873)
updateCurrDst(46001)
updateCurrDst(46221)
updateCurrDst(46336)
updateCurrDst(46370)
Heartbeat CPU 0 instructions: 28000000 cycles: 9081001 heartbeat IPC: 3.12995 cumulative IPC: 3.08336 (Simulation time: 0 hr 1 min 18 sec) 
updateCurrDst(46432)
updateCurrDst(46584)
updateCurrDst(46859)
updateCurrDst(47261)
updateCurrDst(47513)
updateCurrDst(47574)
updateCurrDst(47638)
updateCurrDst(47662)
updateCurrDst(47824)
updateCurrDst(48072)
updateCurrDst(48104)
updateCurrDst(48139)
updateCurrDst(48174)
updateCurrDst(48211)
updateCurrDst(48260)
updateCurrDst(48275)
updateCurrDst(48337)
updateCurrDst(48396)
updateCurrDst(48430)
Heartbeat CPU 0 instructions: 29000000 cycles: 9400313 heartbeat IPC: 3.13173 cumulative IPC: 3.085 (Simulation time: 0 hr 1 min 21 sec) 
updateCurrDst(48516)
updateCurrDst(48524)
updateCurrDst(48555)
updateCurrDst(48566)
updateCurrDst(48686)
updateCurrDst(48707)
updateCurrDst(48720)
updateCurrDst(48921)
updateCurrDst(49065)
updateCurrDst(49100)
updateCurrDst(49229)
updateCurrDst(49355)
updateCurrDst(49367)
updateCurrDst(49797)
updateCurrDst(49867)
updateCurrDst(50050)
updateCurrDst(50108)
updateCurrDst(50153)
updateCurrDst(50199)
updateCurrDst(50223)
updateCurrDst(50281)
updateCurrDst(50480)
Heartbeat CPU 0 instructions: 30000001 cycles: 9720079 heartbeat IPC: 3.12729 cumulative IPC: 3.08639 (Simulation time: 0 hr 1 min 24 sec) 
updateCurrDst(50868)
updateCurrDst(50928)
updateCurrDst(51019)
updateCurrDst(51214)
updateCurrDst(51245)
updateCurrDst(51327)
updateCurrDst(51399)
updateCurrDst(51473)
updateCurrDst(51630)
updateCurrDst(51720)
updateCurrDst(51738)
updateCurrDst(51920)
updateCurrDst(52039)
updateCurrDst(52040)
updateCurrDst(52041)
updateCurrDst(52065)
updateCurrDst(52165)
updateCurrDst(52349)
updateCurrDst(52414)
updateCurrDst(52434)
updateCurrDst(52514)
updateCurrDst(52563)
updateCurrDst(52572)
Heartbeat CPU 0 instructions: 31000001 cycles: 10039632 heartbeat IPC: 3.12937 cumulative IPC: 3.08776 (Simulation time: 0 hr 1 min 27 sec) 
updateCurrDst(52886)
updateCurrDst(52971)
updateCurrDst(52982)
updateCurrDst(53057)
updateCurrDst(53357)
updateCurrDst(53483)
updateCurrDst(53820)
updateCurrDst(53838)
updateCurrDst(53844)
updateCurrDst(53956)
updateCurrDst(53963)
updateCurrDst(54139)
updateCurrDst(54168)
updateCurrDst(54242)
updateCurrDst(54246)
updateCurrDst(54362)
Heartbeat CPU 0 instructions: 32000002 cycles: 10359041 heartbeat IPC: 3.13079 cumulative IPC: 3.08909 (Simulation time: 0 hr 1 min 30 sec) 
updateCurrDst(54771)
updateCurrDst(54801)
updateCurrDst(54826)
updateCurrDst(54888)
updateCurrDst(54931)
updateCurrDst(55089)
updateCurrDst(55099)
updateCurrDst(55130)
updateCurrDst(55277)
updateCurrDst(55415)
updateCurrDst(55700)
updateCurrDst(55780)
updateCurrDst(55857)
updateCurrDst(56078)
updateCurrDst(56141)
updateCurrDst(56358)
updateCurrDst(56478)
updateCurrDst(56538)
updateCurrDst(56603)
updateCurrDst(56669)
updateCurrDst(56792)
Heartbeat CPU 0 instructions: 33000000 cycles: 10678613 heartbeat IPC: 3.12918 cumulative IPC: 3.09029 (Simulation time: 0 hr 1 min 33 sec) 
updateCurrDst(56931)
updateCurrDst(57019)
updateCurrDst(57088)
updateCurrDst(57170)
updateCurrDst(57212)
updateCurrDst(57217)
updateCurrDst(57230)
updateCurrDst(57273)
updateCurrDst(57389)
updateCurrDst(57588)
updateCurrDst(57962)
updateCurrDst(58016)
updateCurrDst(58254)
updateCurrDst(58258)
updateCurrDst(58268)
updateCurrDst(58672)
updateCurrDst(58812)
updateCurrDst(58861)
Heartbeat CPU 0 instructions: 34000002 cycles: 10998108 heartbeat IPC: 3.12995 cumulative IPC: 3.09144 (Simulation time: 0 hr 1 min 36 sec) 

Warmup complete CPU 0 instructions: 34000002 cycles: 10998108 (Simulation time: 0 hr 1 min 36 sec) 

updateCurrDst(59131)
updateCurrDst(59397)
updateCurrDst(59533)
updateCurrDst(59622)
updateCurrDst(59760)
updateCurrDst(59913)
updateCurrDst(60261)
updateCurrDst(60383)
updateCurrDst(60397)
updateCurrDst(60487)
updateCurrDst(60549)
updateCurrDst(60644)
updateCurrDst(60699)
updateCurrDst(60792)
updateCurrDst(60812)
updateCurrDst(60853)
updateCurrDst(60881)
updateCurrDst(60900)
Heartbeat CPU 0 instructions: 35000001 cycles: 14072402 heartbeat IPC: 0.325278 cumulative IPC: 0.325278 (Simulation time: 0 hr 1 min 40 sec) 
updateCurrDst(61028)
updateCurrDst(61107)
updateCurrDst(61440)
updateCurrDst(61498)
updateCurrDst(61549)
updateCurrDst(61701)
updateCurrDst(61702)
updateCurrDst(61810)
updateCurrDst(61859)
updateCurrDst(61958)
updateCurrDst(62146)
updateCurrDst(62238)
updateCurrDst(62452)
updateCurrDst(62698)
updateCurrDst(62765)
updateCurrDst(62972)
updateCurrDst(62980)
updateCurrDst(62985)
updateCurrDst(63008)
Heartbeat CPU 0 instructions: 36000002 cycles: 17132618 heartbeat IPC: 0.326775 cumulative IPC: 0.326024 (Simulation time: 0 hr 1 min 43 sec) 
updateCurrDst(63052)
updateCurrDst(63148)
updateCurrDst(63162)
updateCurrDst(63279)
updateCurrDst(63305)
updateCurrDst(63314)
updateCurrDst(63331)
updateCurrDst(63419)
updateCurrDst(63705)
updateCurrDst(63773)
updateCurrDst(63914)
updateCurrDst(63980)
updateCurrDst(64039)
updateCurrDst(64091)
updateCurrDst(64155)
updateCurrDst(64328)
updateCurrDst(64793)
updateCurrDst(64829)
updateCurrDst(64936)
Heartbeat CPU 0 instructions: 37000000 cycles: 20188865 heartbeat IPC: 0.327198 cumulative IPC: 0.326415 (Simulation time: 0 hr 1 min 46 sec) 
updateCurrDst(65226)
updateCurrDst(65290)
updateCurrDst(65297)
updateCurrDst(65719)
updateCurrDst(65745)
updateCurrDst(65961)
updateCurrDst(65968)
updateCurrDst(65974)
updateCurrDst(66100)
updateCurrDst(66192)
updateCurrDst(66216)
updateCurrDst(66229)
updateCurrDst(66388)
updateCurrDst(66476)
updateCurrDst(66831)
updateCurrDst(66838)
updateCurrDst(66864)
updateCurrDst(67149)
updateCurrDst(67226)
Heartbeat CPU 0 instructions: 38000002 cycles: 23243560 heartbeat IPC: 0.327366 cumulative IPC: 0.326652 (Simulation time: 0 hr 1 min 50 sec) 
updateCurrDst(67296)
updateCurrDst(67431)
updateCurrDst(67441)
updateCurrDst(67604)
updateCurrDst(67609)
updateCurrDst(67618)
updateCurrDst(67691)
updateCurrDst(67774)
updateCurrDst(67792)
updateCurrDst(67850)
updateCurrDst(67912)
updateCurrDst(67962)
updateCurrDst(68249)
updateCurrDst(68429)
updateCurrDst(68514)
updateCurrDst(68528)
updateCurrDst(68582)
updateCurrDst(68608)
updateCurrDst(68772)
updateCurrDst(69055)
updateCurrDst(69071)
updateCurrDst(69114)
updateCurrDst(69158)
updateCurrDst(69272)
updateCurrDst(69298)
Heartbeat CPU 0 instructions: 39000002 cycles: 26299079 heartbeat IPC: 0.327277 cumulative IPC: 0.326777 (Simulation time: 0 hr 1 min 53 sec) 
updateCurrDst(69381)
updateCurrDst(69390)
updateCurrDst(69509)
updateCurrDst(69783)
updateCurrDst(69851)
updateCurrDst(69870)
updateCurrDst(69884)
updateCurrDst(69885)
updateCurrDst(69920)
updateCurrDst(69940)
updateCurrDst(69972)
updateCurrDst(69994)
updateCurrDst(70101)
updateCurrDst(70129)
updateCurrDst(70351)
updateCurrDst(70511)
updateCurrDst(70542)
updateCurrDst(70566)
updateCurrDst(70614)
updateCurrDst(70775)
updateCurrDst(71305)
Heartbeat CPU 0 instructions: 40000000 cycles: 29356931 heartbeat IPC: 0.327026 cumulative IPC: 0.326818 (Simulation time: 0 hr 1 min 57 sec) 
updateCurrDst(71390)
updateCurrDst(71455)
updateCurrDst(71591)
updateCurrDst(72003)
updateCurrDst(72213)
updateCurrDst(72240)
updateCurrDst(72381)
updateCurrDst(72629)
updateCurrDst(72677)
updateCurrDst(72764)
updateCurrDst(72788)
updateCurrDst(73143)
updateCurrDst(73240)
updateCurrDst(73241)
updateCurrDst(73414)
Heartbeat CPU 0 instructions: 41000000 cycles: 32417798 heartbeat IPC: 0.326705 cumulative IPC: 0.326802 (Simulation time: 0 hr 2 min 0 sec) 
updateCurrDst(73486)
updateCurrDst(73599)
updateCurrDst(73643)
updateCurrDst(73882)
updateCurrDst(73918)
updateCurrDst(74137)
updateCurrDst(74232)
updateCurrDst(74360)
updateCurrDst(74381)
updateCurrDst(74413)
updateCurrDst(74559)
updateCurrDst(74852)
updateCurrDst(74868)
updateCurrDst(74984)
updateCurrDst(75050)
updateCurrDst(75203)
updateCurrDst(75376)
updateCurrDst(75423)
Heartbeat CPU 0 instructions: 42000000 cycles: 35475624 heartbeat IPC: 0.32703 cumulative IPC: 0.32683 (Simulation time: 0 hr 2 min 3 sec) 
updateCurrDst(75519)
updateCurrDst(75565)
updateCurrDst(75586)
updateCurrDst(75628)
updateCurrDst(75834)
updateCurrDst(76103)
updateCurrDst(76123)
updateCurrDst(76161)
updateCurrDst(76334)
updateCurrDst(76384)
updateCurrDst(76729)
updateCurrDst(76949)
updateCurrDst(76959)
updateCurrDst(76975)
updateCurrDst(77004)
updateCurrDst(77007)
updateCurrDst(77108)
updateCurrDst(77112)
updateCurrDst(77158)
updateCurrDst(77410)
updateCurrDst(77432)
updateCurrDst(77486)
updateCurrDst(77561)
Heartbeat CPU 0 instructions: 43000000 cycles: 38532819 heartbeat IPC: 0.327097 cumulative IPC: 0.32686 (Simulation time: 0 hr 2 min 7 sec) 
updateCurrDst(77658)
updateCurrDst(77674)
updateCurrDst(77728)
updateCurrDst(77766)
updateCurrDst(77875)
updateCurrDst(77992)
updateCurrDst(78184)
updateCurrDst(78346)
updateCurrDst(78439)
updateCurrDst(78498)
updateCurrDst(78677)
updateCurrDst(78798)
updateCurrDst(79098)
updateCurrDst(79162)
updateCurrDst(79220)
updateCurrDst(79429)
updateCurrDst(79522)
Heartbeat CPU 0 instructions: 44000000 cycles: 41590150 heartbeat IPC: 0.327083 cumulative IPC: 0.326882 (Simulation time: 0 hr 2 min 10 sec) 
updateCurrDst(79881)
updateCurrDst(79898)
updateCurrDst(79976)
updateCurrDst(79988)
updateCurrDst(79998)
updateCurrDst(80062)
updateCurrDst(80100)
updateCurrDst(80143)
updateCurrDst(80246)
updateCurrDst(80268)
updateCurrDst(80314)
updateCurrDst(80586)
updateCurrDst(80638)
updateCurrDst(81036)
updateCurrDst(81053)
updateCurrDst(81238)
updateCurrDst(81382)
updateCurrDst(81419)
updateCurrDst(81568)
Heartbeat CPU 0 instructions: 45000000 cycles: 44644480 heartbeat IPC: 0.327404 cumulative IPC: 0.32693 (Simulation time: 0 hr 2 min 13 sec) 
updateCurrDst(81854)
updateCurrDst(81921)
updateCurrDst(82132)
updateCurrDst(82239)
updateCurrDst(82388)
updateCurrDst(82414)
updateCurrDst(82427)
updateCurrDst(82553)
updateCurrDst(82720)
updateCurrDst(82742)
updateCurrDst(82907)
updateCurrDst(83210)
updateCurrDst(83297)
updateCurrDst(83342)
updateCurrDst(83545)
updateCurrDst(83588)
updateCurrDst(83597)
updateCurrDst(83630)
Heartbeat CPU 0 instructions: 46000000 cycles: 47699471 heartbeat IPC: 0.327333 cumulative IPC: 0.326963 (Simulation time: 0 hr 2 min 17 sec) 
updateCurrDst(83917)
updateCurrDst(84168)
updateCurrDst(84343)
updateCurrDst(84345)
updateCurrDst(84346)
updateCurrDst(84525)
updateCurrDst(84614)
updateCurrDst(84616)
updateCurrDst(84740)
updateCurrDst(84806)
updateCurrDst(84835)
updateCurrDst(85159)
updateCurrDst(85222)
updateCurrDst(85248)
updateCurrDst(85489)
updateCurrDst(85649)
updateCurrDst(85695)
updateCurrDst(85701)
Heartbeat CPU 0 instructions: 47000001 cycles: 50757077 heartbeat IPC: 0.327054 cumulative IPC: 0.32697 (Simulation time: 0 hr 2 min 20 sec) 
updateCurrDst(85962)
updateCurrDst(86025)
updateCurrDst(86042)
updateCurrDst(86176)
updateCurrDst(86220)
updateCurrDst(86265)
updateCurrDst(86348)
updateCurrDst(86389)
updateCurrDst(86410)
updateCurrDst(86643)
updateCurrDst(86648)
updateCurrDst(86687)
updateCurrDst(86705)
updateCurrDst(86714)
updateCurrDst(86923)
updateCurrDst(87406)
updateCurrDst(87567)
updateCurrDst(87633)
updateCurrDst(87660)
updateCurrDst(87698)
updateCurrDst(87884)
updateCurrDst(87908)
Heartbeat CPU 0 instructions: 48000000 cycles: 53812383 heartbeat IPC: 0.327299 cumulative IPC: 0.326994 (Simulation time: 0 hr 2 min 24 sec) 
updateCurrDst(88119)
updateCurrDst(88132)
updateCurrDst(88255)
updateCurrDst(88258)
updateCurrDst(88267)
updateCurrDst(88275)
updateCurrDst(88327)
updateCurrDst(88332)
updateCurrDst(88483)
updateCurrDst(88536)
updateCurrDst(88544)
updateCurrDst(88686)
updateCurrDst(88747)
updateCurrDst(88952)
updateCurrDst(89100)
updateCurrDst(89148)
updateCurrDst(89430)
updateCurrDst(89450)
updateCurrDst(89582)
updateCurrDst(89592)
updateCurrDst(89880)
updateCurrDst(89956)
Heartbeat CPU 0 instructions: 49000001 cycles: 56866560 heartbeat IPC: 0.327421 cumulative IPC: 0.327022 (Simulation time: 0 hr 2 min 27 sec) 
updateCurrDst(90161)
updateCurrDst(90283)
updateCurrDst(90332)
updateCurrDst(90353)
updateCurrDst(90355)
updateCurrDst(90528)
updateCurrDst(90541)
updateCurrDst(90601)
updateCurrDst(90639)
updateCurrDst(90642)
updateCurrDst(91049)
updateCurrDst(91124)
updateCurrDst(91137)
updateCurrDst(91228)
updateCurrDst(91315)
updateCurrDst(91352)
updateCurrDst(91364)
updateCurrDst(91479)
updateCurrDst(91800)
updateCurrDst(91922)
updateCurrDst(91935)
Heartbeat CPU 0 instructions: 50000001 cycles: 59925065 heartbeat IPC: 0.326957 cumulative IPC: 0.327018 (Simulation time: 0 hr 2 min 31 sec) 
updateCurrDst(92464)
updateCurrDst(92475)
updateCurrDst(92501)
updateCurrDst(92793)
updateCurrDst(92932)
updateCurrDst(92935)
updateCurrDst(93200)
updateCurrDst(93210)
updateCurrDst(93212)
updateCurrDst(93267)
updateCurrDst(93323)
updateCurrDst(93475)
updateCurrDst(93486)
updateCurrDst(93735)
updateCurrDst(93770)
updateCurrDst(93801)
updateCurrDst(93806)
updateCurrDst(93842)
updateCurrDst(93960)
updateCurrDst(93981)
updateCurrDst(94147)
Heartbeat CPU 0 instructions: 51000001 cycles: 62989010 heartbeat IPC: 0.326377 cumulative IPC: 0.32698 (Simulation time: 0 hr 2 min 35 sec) 
updateCurrDst(94288)
updateCurrDst(94411)
updateCurrDst(94640)
updateCurrDst(94905)
updateCurrDst(94970)
updateCurrDst(95028)
updateCurrDst(95105)
updateCurrDst(95161)
updateCurrDst(95321)
updateCurrDst(95453)
updateCurrDst(95502)
updateCurrDst(95707)
updateCurrDst(95830)
updateCurrDst(95950)
updateCurrDst(96022)
updateCurrDst(96223)
updateCurrDst(96290)
Heartbeat CPU 0 instructions: 52000001 cycles: 66047482 heartbeat IPC: 0.326961 cumulative IPC: 0.326979 (Simulation time: 0 hr 2 min 39 sec) 
updateCurrDst(96356)
updateCurrDst(96460)
updateCurrDst(96819)
updateCurrDst(96854)
updateCurrDst(96918)
updateCurrDst(97356)
updateCurrDst(97468)
updateCurrDst(97595)
updateCurrDst(97769)
updateCurrDst(97884)
updateCurrDst(98179)
updateCurrDst(98244)
updateCurrDst(98256)
updateCurrDst(98282)
updateCurrDst(98345)
Heartbeat CPU 0 instructions: 53000001 cycles: 69109210 heartbeat IPC: 0.326613 cumulative IPC: 0.32696 (Simulation time: 0 hr 2 min 42 sec) 
updateCurrDst(98417)
updateCurrDst(98758)
updateCurrDst(98795)
updateCurrDst(98869)
updateCurrDst(99031)
updateCurrDst(99036)
updateCurrDst(99043)
updateCurrDst(99059)
updateCurrDst(99168)
updateCurrDst(99181)
updateCurrDst(99340)
updateCurrDst(99385)
updateCurrDst(99388)
updateCurrDst(99435)
updateCurrDst(99442)
updateCurrDst(99477)
updateCurrDst(99662)
updateCurrDst(99891)
updateCurrDst(99931)
updateCurrDst(100002)
updateCurrDst(100030)
updateCurrDst(100197)
updateCurrDst(100320)
updateCurrDst(100416)
updateCurrDst(100424)
updateCurrDst(100459)
Heartbeat CPU 0 instructions: 54000001 cycles: 72171245 heartbeat IPC: 0.32658 cumulative IPC: 0.326941 (Simulation time: 0 hr 2 min 45 sec) 
updateCurrDst(100605)
updateCurrDst(100692)
updateCurrDst(100964)
updateCurrDst(100966)
updateCurrDst(101061)
updateCurrDst(101065)
updateCurrDst(101450)
updateCurrDst(101451)
updateCurrDst(101540)
updateCurrDst(101816)
updateCurrDst(101965)
updateCurrDst(102145)
updateCurrDst(102417)
Heartbeat CPU 0 instructions: 55000000 cycles: 75226011 heartbeat IPC: 0.327357 cumulative IPC: 0.326961 (Simulation time: 0 hr 2 min 49 sec) 
updateCurrDst(102617)
updateCurrDst(102704)
updateCurrDst(102761)
updateCurrDst(102780)
updateCurrDst(102943)
updateCurrDst(102985)
updateCurrDst(103194)
updateCurrDst(103206)
updateCurrDst(103290)
updateCurrDst(103670)
updateCurrDst(103682)
updateCurrDst(103695)
updateCurrDst(103710)
updateCurrDst(104079)
updateCurrDst(104272)
updateCurrDst(104350)
updateCurrDst(104434)
updateCurrDst(104460)
Heartbeat CPU 0 instructions: 56000002 cycles: 78279943 heartbeat IPC: 0.327447 cumulative IPC: 0.326983 (Simulation time: 0 hr 2 min 52 sec) 
updateCurrDst(105106)
updateCurrDst(105298)
updateCurrDst(105317)
updateCurrDst(105325)
updateCurrDst(105375)
updateCurrDst(105395)
updateCurrDst(105437)
updateCurrDst(105714)
updateCurrDst(105857)
updateCurrDst(105902)
updateCurrDst(105951)
updateCurrDst(106159)
updateCurrDst(106199)
updateCurrDst(106253)
updateCurrDst(106431)
updateCurrDst(106448)
updateCurrDst(106466)
updateCurrDst(106475)
updateCurrDst(106498)
updateCurrDst(106522)
updateCurrDst(106678)
Heartbeat CPU 0 instructions: 57000000 cycles: 81343166 heartbeat IPC: 0.326453 cumulative IPC: 0.32696 (Simulation time: 0 hr 2 min 55 sec) 
updateCurrDst(106842)
updateCurrDst(107001)
updateCurrDst(107071)
updateCurrDst(107118)
updateCurrDst(107129)
updateCurrDst(107212)
updateCurrDst(107323)
updateCurrDst(107354)
updateCurrDst(107395)
updateCurrDst(107455)
updateCurrDst(107456)
updateCurrDst(107475)
updateCurrDst(108017)
updateCurrDst(108099)
updateCurrDst(108145)
updateCurrDst(108217)
updateCurrDst(108227)
updateCurrDst(108240)
updateCurrDst(108360)
updateCurrDst(108427)
updateCurrDst(108465)
updateCurrDst(108538)
updateCurrDst(108771)
updateCurrDst(108793)
updateCurrDst(108829)
Heartbeat CPU 0 instructions: 58000000 cycles: 84408566 heartbeat IPC: 0.326222 cumulative IPC: 0.326929 (Simulation time: 0 hr 2 min 59 sec) 
updateCurrDst(109275)
updateCurrDst(109637)
updateCurrDst(109675)
updateCurrDst(109686)
updateCurrDst(110369)
updateCurrDst(110777)
updateCurrDst(110822)
updateCurrDst(110878)
Heartbeat CPU 0 instructions: 59000002 cycles: 87469525 heartbeat IPC: 0.326696 cumulative IPC: 0.32692 (Simulation time: 0 hr 3 min 2 sec) 
updateCurrDst(110917)
updateCurrDst(110926)
updateCurrDst(110982)
updateCurrDst(111031)
updateCurrDst(111045)
updateCurrDst(111081)
updateCurrDst(111125)
updateCurrDst(111272)
updateCurrDst(111314)
updateCurrDst(111422)
updateCurrDst(111493)
updateCurrDst(111532)
updateCurrDst(111835)
updateCurrDst(111991)
updateCurrDst(112078)
updateCurrDst(112260)
updateCurrDst(112301)
updateCurrDst(112331)
updateCurrDst(112467)
updateCurrDst(112508)
updateCurrDst(112542)
updateCurrDst(112546)
updateCurrDst(112590)
updateCurrDst(112594)
updateCurrDst(112601)
updateCurrDst(112842)
updateCurrDst(112903)
Heartbeat CPU 0 instructions: 60000000 cycles: 90525001 heartbeat IPC: 0.327281 cumulative IPC: 0.326933 (Simulation time: 0 hr 3 min 6 sec) 
updateCurrDst(113084)
updateCurrDst(113085)
updateCurrDst(113143)
updateCurrDst(113363)
updateCurrDst(113441)
updateCurrDst(113708)
updateCurrDst(113859)
updateCurrDst(114338)
updateCurrDst(114530)
updateCurrDst(114567)
updateCurrDst(114698)
updateCurrDst(114819)
updateCurrDst(115019)
Heartbeat CPU 0 instructions: 61000000 cycles: 93583359 heartbeat IPC: 0.326973 cumulative IPC: 0.326935 (Simulation time: 0 hr 3 min 9 sec) 
updateCurrDst(115080)
updateCurrDst(115113)
updateCurrDst(115173)
updateCurrDst(115264)
updateCurrDst(115287)
updateCurrDst(115380)
updateCurrDst(115451)
updateCurrDst(115452)
updateCurrDst(115603)
updateCurrDst(115655)
updateCurrDst(115706)
updateCurrDst(115709)
updateCurrDst(115874)
updateCurrDst(115985)
updateCurrDst(116016)
updateCurrDst(116274)
updateCurrDst(116302)
updateCurrDst(116370)
updateCurrDst(116385)
updateCurrDst(116949)
updateCurrDst(116950)
updateCurrDst(117005)
updateCurrDst(117034)
Heartbeat CPU 0 instructions: 62000000 cycles: 96634778 heartbeat IPC: 0.327716 cumulative IPC: 0.326963 (Simulation time: 0 hr 3 min 12 sec) 
updateCurrDst(117232)
updateCurrDst(117330)
updateCurrDst(117604)
updateCurrDst(117702)
updateCurrDst(117805)
updateCurrDst(117896)
updateCurrDst(117959)
updateCurrDst(117979)
updateCurrDst(118128)
updateCurrDst(118219)
updateCurrDst(118273)
updateCurrDst(118345)
updateCurrDst(118393)
updateCurrDst(118403)
updateCurrDst(118542)
updateCurrDst(118552)
updateCurrDst(118563)
updateCurrDst(118653)
updateCurrDst(118765)
updateCurrDst(118789)
updateCurrDst(118799)
updateCurrDst(119069)
updateCurrDst(119198)
updateCurrDst(119203)
Heartbeat CPU 0 instructions: 63000000 cycles: 99691904 heartbeat IPC: 0.327105 cumulative IPC: 0.326968 (Simulation time: 0 hr 3 min 16 sec) 
updateCurrDst(119244)
updateCurrDst(119253)
updateCurrDst(119275)
updateCurrDst(119374)
updateCurrDst(119401)
updateCurrDst(119576)
updateCurrDst(119600)
updateCurrDst(119660)
updateCurrDst(119716)
updateCurrDst(119740)
updateCurrDst(119759)
updateCurrDst(120055)
updateCurrDst(120128)
updateCurrDst(120139)
updateCurrDst(120225)
updateCurrDst(120334)
updateCurrDst(120473)
updateCurrDst(120564)
updateCurrDst(120685)
updateCurrDst(120748)
updateCurrDst(120894)
updateCurrDst(120918)
updateCurrDst(120966)
updateCurrDst(121153)
updateCurrDst(121196)
updateCurrDst(121234)
updateCurrDst(121276)
Heartbeat CPU 0 instructions: 64000000 cycles: 102756702 heartbeat IPC: 0.326286 cumulative IPC: 0.326945 (Simulation time: 0 hr 3 min 19 sec) 
updateCurrDst(121284)
updateCurrDst(121323)
updateCurrDst(121473)
updateCurrDst(121483)
updateCurrDst(121554)
updateCurrDst(121562)
updateCurrDst(121778)
updateCurrDst(121947)
updateCurrDst(121954)
updateCurrDst(122151)
updateCurrDst(122414)
updateCurrDst(122529)
updateCurrDst(122600)
updateCurrDst(122654)
updateCurrDst(122951)
updateCurrDst(123039)
updateCurrDst(123110)
updateCurrDst(123117)
updateCurrDst(123125)
updateCurrDst(123134)
Heartbeat CPU 0 instructions: 65000000 cycles: 105814751 heartbeat IPC: 0.327006 cumulative IPC: 0.326947 (Simulation time: 0 hr 3 min 23 sec) 
updateCurrDst(123671)
updateCurrDst(123727)
updateCurrDst(123796)
updateCurrDst(123827)
updateCurrDst(123895)
updateCurrDst(124138)
updateCurrDst(124141)
updateCurrDst(124155)
updateCurrDst(124310)
updateCurrDst(124386)
updateCurrDst(124648)
updateCurrDst(124802)
updateCurrDst(124958)
updateCurrDst(125045)
updateCurrDst(125081)
updateCurrDst(125096)
updateCurrDst(125149)
updateCurrDst(125192)
updateCurrDst(125207)
updateCurrDst(125236)
updateCurrDst(125435)
Heartbeat CPU 0 instructions: 66000000 cycles: 108871884 heartbeat IPC: 0.327104 cumulative IPC: 0.326952 (Simulation time: 0 hr 3 min 27 sec) 
updateCurrDst(125472)
updateCurrDst(125518)
updateCurrDst(125560)
updateCurrDst(125746)
updateCurrDst(125755)
updateCurrDst(125908)
updateCurrDst(126120)
updateCurrDst(126282)
updateCurrDst(126364)
updateCurrDst(126450)
updateCurrDst(126541)
updateCurrDst(126583)
updateCurrDst(126606)
updateCurrDst(126820)
updateCurrDst(126939)
updateCurrDst(127159)
updateCurrDst(127178)
updateCurrDst(127194)
updateCurrDst(127249)
updateCurrDst(127309)
updateCurrDst(127493)
Heartbeat CPU 0 instructions: 67000002 cycles: 111931427 heartbeat IPC: 0.326847 cumulative IPC: 0.326949 (Simulation time: 0 hr 3 min 30 sec) 
updateCurrDst(127806)
updateCurrDst(127810)
updateCurrDst(127850)
updateCurrDst(128099)
updateCurrDst(128271)
updateCurrDst(128273)
updateCurrDst(128276)
updateCurrDst(128539)
updateCurrDst(128572)
updateCurrDst(128666)
updateCurrDst(128721)
updateCurrDst(129071)
updateCurrDst(129137)
updateCurrDst(129284)
updateCurrDst(129311)
updateCurrDst(129373)
updateCurrDst(129434)
*** Reached end of trace for Core: 0 Repeating trace: ./tracer/pull_u17_k3.xzafter: 68000000
Heartbeat CPU 0 instructions: 68000002 cycles: 114996411 heartbeat IPC: 0.326266 cumulative IPC: 0.326928 (Simulation time: 0 hr 3 min 33 sec) 
Finished CPU 0 instructions: 34000000 cycles: 103998303 cumulative IPC: 0.326928 (Simulation time: 0 hr 3 min 33 sec) 

ChampSim completed all CPUs

Region of Interest Statistics

CPU 0 cumulative IPC: 0.326928 instructions: 34000000 cycles: 103998303

Total ROB STALLS:                   12892249
STLB MISS ROB STALLS:                    414
L1D  LOAD MISS ROB STALLS:            428038  Translation MISS ROB STALLS:             0
L2C  LOAD MISS ROB STALLS:            110927  Translation MISS ROB STALLS:             0
LLC  LOAD MISS ROB STALLS:             39579  Translation MISS ROB STALLS:             0

ITLB TOTAL     ACCESS:           4598153  HIT:    4598153  MISS:          0  HIT %:        100  MISS %:          0   MPKI: 0
ITLB LOAD TRANSLATION ACCESS:    4598153  HIT:    4598153  MISS:          0  HIT %:        100  MISS %:          0   MPKI: 0
ITLB AVERAGE MISS LATENCY:          -nan cycles
ITLB RQ ACCESS:     5018418	FORWARD:           0	MERGED:       420265	TO_CACHE:    4598153

DTLB TOTAL     ACCESS:          10097631  HIT:    9863135  MISS:     234496  HIT %:    97.6777  MISS %:    2.32229   MPKI: 6.89694
DTLB LOAD TRANSLATION ACCESS:   10097631  HIT:    9863135  MISS:     234496  HIT %:    97.6777  MISS %:    2.32229   MPKI: 6.89694
DTLB AVERAGE MISS LATENCY:       9.44314 cycles
DTLB RQ ACCESS:    13583327	FORWARD:           0	MERGED:      3485696	TO_CACHE:   10097631

STLB TOTAL     ACCESS:            234496  HIT:     234082  MISS:        414  HIT %:    99.8235  MISS %:   0.176549   MPKI: 0.0121765
STLB LOAD TRANSLATION ACCESS:     234496  HIT:     234082  MISS:        414  HIT %:    99.8235  MISS %:   0.176549   MPKI: 0.0121765
STLB AVERAGE MISS LATENCY:           251 cycles
STLB RQ ACCESS:      234496	FORWARD:           0	MERGED:            0	TO_CACHE:     234496

PSCL5 TOTAL     ACCESS:               414  HIT:        414  MISS:          0  HIT %:        100  MISS %:          0   MPKI: 0
PSCL5 LOAD TRANSLATION ACCESS:        414  HIT:        414  MISS:          0  HIT %:        100  MISS %:          0   MPKI: 0

PSCL4 TOTAL     ACCESS:               414  HIT:        414  MISS:          0  HIT %:        100  MISS %:          0   MPKI: 0
PSCL4 LOAD TRANSLATION ACCESS:        414  HIT:        414  MISS:          0  HIT %:        100  MISS %:          0   MPKI: 0

PSCL3 TOTAL     ACCESS:               414  HIT:        414  MISS:          0  HIT %:        100  MISS %:          0   MPKI: 0
PSCL3 LOAD TRANSLATION ACCESS:        414  HIT:        414  MISS:          0  HIT %:        100  MISS %:          0   MPKI: 0

PSCL2 TOTAL     ACCESS:               414  HIT:        414  MISS:          0  HIT %:        100  MISS %:          0   MPKI: 0
PSCL2 LOAD TRANSLATION ACCESS:        414  HIT:        414  MISS:          0  HIT %:        100  MISS %:          0   MPKI: 0

L1D TOTAL     ACCESS:          13583331  HIT:   13155294  MISS:     428037  HIT %:    96.8488  MISS %:    3.15119   MPKI: 12.5893  USED:      72471  UNUSED:     355566
L1D LOAD      ACCESS:           5745035  HIT:    5316998  MISS:     428037  HIT %:    92.5494  MISS %:    7.45056   MPKI: 12.5893  USED:      72471  UNUSED:     355566
L1D RFO       ACCESS:           7838296  HIT:    7838296  MISS:          0  HIT %:        100  MISS %:          0   MPKI: 0
L1D PTL1 TRANSLATION ACCESS:          0  HIT:          0  MISS:          0  HIT %:       -nan  MISS %:       -nan   MPKI: 0
L1D PTL2 TRANSLATION ACCESS:          0  HIT:          0  MISS:          0  HIT %:       -nan  MISS %:       -nan   MPKI: 0
L1D PTL3 TRANSLATION ACCESS:          0  HIT:          0  MISS:          0  HIT %:       -nan  MISS %:       -nan   MPKI: 0
L1D PTL4 TRANSLATION ACCESS:          0  HIT:          0  MISS:          0  HIT %:       -nan  MISS %:       -nan   MPKI: 0
L1D PTL5 TRANSLATION ACCESS:          0  HIT:          0  MISS:          0  HIT %:       -nan  MISS %:       -nan   MPKI: 0
L1D TOTAL EVICTIONS:             428037  TRANSLATION EVICTIONS:          0  TRANSLATION EVICTING TRANSALTION:          0  TRANSLATION EVICTING LOAD:          0  LOAD EVICTING TRANSALTION:          0  LOAD EVICTING LOAD:      428037
L1D AVERAGE MISS LATENCY:       35.4417 cycles  AVERAGE LOAD MISS LATENCY:       35.4417 cycles  AVERAGE LOAD TRANSLATION MISS LATENCY:          -nan cycles
L1D RQ ACCESS:     8589536	FORWARD:           0	MERGED:      2039005	TO_CACHE:    5745037
L1D WQ ACCESS:     7846164	FORWARD:      805494	MERGED:         7874	TO_CACHE:    7838290

L1I TOTAL     ACCESS:           5018418  HIT:    5018418  MISS:          0  HIT %:        100  MISS %:          0   MPKI: 0
L1I LOAD      ACCESS:           5018418  HIT:    5018418  MISS:          0  HIT %:        100  MISS %:          0   MPKI: 0
L1I AVERAGE MISS LATENCY:          -nan cycles
L1I RQ ACCESS:     7932483	FORWARD:           0	MERGED:      2914065	TO_CACHE:    5018418

L2C TOTAL     ACCESS:            432456  HIT:     321530  MISS:     110926  HIT %:    74.3498  MISS %:    25.6502   MPKI: 3.26253  USED:      57372  UNUSED:      53554
L2C LOAD      ACCESS:            428037  HIT:     317111  MISS:     110926  HIT %:     74.085  MISS %:     25.915   MPKI: 3.26253  USED:      57372  UNUSED:      53554
L2C WRITEBACK ACCESS:              4419  HIT:       4419  MISS:          0  HIT %:        100  MISS %:          0   MPKI: 0
L2C PTL1 TRANSLATION ACCESS:          0  HIT:          0  MISS:          0  HIT %:       -nan  MISS %:       -nan   MPKI: 0
L2C PTL2 TRANSLATION ACCESS:          0  HIT:          0  MISS:          0  HIT %:       -nan  MISS %:       -nan   MPKI: 0
L2C PTL3 TRANSLATION ACCESS:          0  HIT:          0  MISS:          0  HIT %:       -nan  MISS %:       -nan   MPKI: 0
L2C PTL4 TRANSLATION ACCESS:          0  HIT:          0  MISS:          0  HIT %:       -nan  MISS %:       -nan   MPKI: 0
L2C PTL5 TRANSLATION ACCESS:          0  HIT:          0  MISS:          0  HIT %:       -nan  MISS %:       -nan   MPKI: 0
L2C TOTAL EVICTIONS:             110926  TRANSLATION EVICTIONS:          0  TRANSLATION EVICTING TRANSALTION:          0  TRANSLATION EVICTING LOAD:          0  LOAD EVICTING TRANSALTION:          0  LOAD EVICTING LOAD:      110926
L2C AVERAGE MISS LATENCY:       78.8797 cycles  AVERAGE LOAD MISS LATENCY:       78.8797 cycles  AVERAGE LOAD TRANSLATION MISS LATENCY:          -nan cycles
L2C RQ ACCESS:      428039	FORWARD:           0	MERGED:            0	TO_CACHE:     428039
L2C WQ ACCESS:        4419	FORWARD:           0	MERGED:            0	TO_CACHE:       4419

LLC TOTAL     ACCESS:            115361  HIT:      75782  MISS:      39579  HIT %:    65.6912  MISS %:    34.3088   MPKI: 1.16409  USED:          0  UNUSED:          0
LLC LOAD      ACCESS:            110926  HIT:      71347  MISS:      39579  HIT %:    64.3195  MISS %:    35.6805   MPKI: 1.16409  USED:          0  UNUSED:          0
LLC WRITEBACK ACCESS:              4435  HIT:       4435  MISS:          0  HIT %:        100  MISS %:          0   MPKI: 0
LLC PTL1 TRANSLATION ACCESS:          0  HIT:          0  MISS:          0  HIT %:       -nan  MISS %:       -nan   MPKI: 0
LLC PTL2 TRANSLATION ACCESS:          0  HIT:          0  MISS:          0  HIT %:       -nan  MISS %:       -nan   MPKI: 0
LLC PTL3 TRANSLATION ACCESS:          0  HIT:          0  MISS:          0  HIT %:       -nan  MISS %:       -nan   MPKI: 0
LLC PTL4 TRANSLATION ACCESS:          0  HIT:          0  MISS:          0  HIT %:       -nan  MISS %:       -nan   MPKI: 0
LLC PTL5 TRANSLATION ACCESS:          0  HIT:          0  MISS:          0  HIT %:       -nan  MISS %:       -nan   MPKI: 0
LLC TOTAL EVICTIONS:                  0  TRANSLATION EVICTIONS:          0  TRANSLATION EVICTING TRANSALTION:          0  TRANSLATION EVICTING LOAD:          0  LOAD EVICTING TRANSALTION:          0  LOAD EVICTING LOAD:           0
LLC AVERAGE MISS LATENCY:       136.993 cycles  AVERAGE LOAD MISS LATENCY:       136.993 cycles  AVERAGE LOAD TRANSLATION MISS LATENCY:          -nan cycles
LLC RQ ACCESS:      110928	FORWARD:           0	MERGED:            0	TO_CACHE:     110928
LLC WQ ACCESS:        4435	FORWARD:           0	MERGED:            0	TO_CACHE:       4435


RAW hits: 5830277
Loads Generated: 14419814
Loads sent to L1D: 8589536
Stores Generated: 7846161
Stores sent to L1D: 7846164
Major fault: 0 Minor fault: 1613
Allocated PAGES: 1613
IRREG DATA L1D ACCESS: 777648
L2C ACCESSES: 712046
L2C MISSES: 134767

DRAM Statistics
 CHANNEL 0
 RQ ROW_BUFFER_HIT:      13064  ROW_BUFFER_MISS:      26929
 DBUS_CONGESTED:          0
 WQ ROW_BUFFER_HIT:          1  ROW_BUFFER_MISS:       3586  FULL:          0

 AVG_CONGESTED_CYCLE: -

CPU 0 Branch Prediction Accuracy: 98.3165% MPKI: 2.06494 Average ROB Occupancy at Mispredict: 17.3444
Branch types
NOT_BRANCH: 29829226 87.733%
BRANCH_DIRECT_JUMP: 0 0%
BRANCH_INDIRECT: 494726 1.45508%
BRANCH_CONDITIONAL: 0 0%
BRANCH_DIRECT_CALL: 70708 0.207965%
BRANCH_INDIRECT_CALL: 1413704 4.15795%
BRANCH_RETURN: 1484414 4.36592%
BRANCH_OTHER: 706853 2.07898%

DRAM PAGES: 1048576
Allocated PAGES: 1613
