
*** ChampSim Multicore Out-of-Order Simulator ***

Warmup Instructions: 34000000
Simulation Instructions: 34000000
Number of CPUs: 1
LLC sets: 2048
LLC ways: 16
Off-chip DRAM Size: 4096 MB Channels: 1 Width: 64-bit Data Rate: 6400 MT/s
CPU 0 runs ./tracer/pull_u17_k3.xz
.xz
BTB has LRU replacement policy
ITLB has LRU replacement policy
DTLB has LRU replacement policy
STLB has LRU replacement policy
L1I has LRU replacement policy
L1D has LRU replacement policy
L2C has LRU replacement policy
Initialize DRRIP state for LLC
Heartbeat CPU 0 instructions: 1000000 cycles: 350520 heartbeat IPC: 2.8529 cumulative IPC: 2.8529 (Simulation time: 0 hr 0 min 3 sec) 
Heartbeat CPU 0 instructions: 2000003 cycles: 701020 heartbeat IPC: 2.85308 cumulative IPC: 2.85299 (Simulation time: 0 hr 0 min 6 sec) 
Heartbeat CPU 0 instructions: 3000002 cycles: 1051514 heartbeat IPC: 2.85311 cumulative IPC: 2.85303 (Simulation time: 0 hr 0 min 9 sec) 
PIN_registerGraphs(random_u17_k3.sg,1)
Graphh Number of Nodes: 131072
Heartbeat CPU 0 instructions: 4000000 cycles: 1394730 heartbeat IPC: 2.91361 cumulative IPC: 2.86794 (Simulation time: 0 hr 0 min 11 sec) 
Heartbeat CPU 0 instructions: 5000000 cycles: 1727996 heartbeat IPC: 3.00061 cumulative IPC: 2.89353 (Simulation time: 0 hr 0 min 12 sec) 
PIN_updateRegBaseBound( 93967752388816, 93967752913104)
updateCurrDst(9)
updateCurrDst(32)
updateCurrDst(39)
updateCurrDst(123)
updateCurrDst(139)
updateCurrDst(243)
updateCurrDst(272)
Heartbeat CPU 0 instructions: 6000001 cycles: 2056684 heartbeat IPC: 3.0424 cumulative IPC: 2.91732 (Simulation time: 0 hr 0 min 14 sec) 
updateCurrDst(719)
updateCurrDst(867)
updateCurrDst(990)
updateCurrDst(1062)
updateCurrDst(1071)
updateCurrDst(1099)
updateCurrDst(1150)
updateCurrDst(1366)
updateCurrDst(1480)
updateCurrDst(1538)
updateCurrDst(1831)
updateCurrDst(1922)
updateCurrDst(2035)
updateCurrDst(2073)
updateCurrDst(2127)
updateCurrDst(2140)
updateCurrDst(2213)
updateCurrDst(2235)
updateCurrDst(2262)
updateCurrDst(2348)
updateCurrDst(2489)
updateCurrDst(2502)
updateCurrDst(2674)
Heartbeat CPU 0 instructions: 7000002 cycles: 2376062 heartbeat IPC: 3.13109 cumulative IPC: 2.94605 (Simulation time: 0 hr 0 min 18 sec) 
updateCurrDst(2824)
updateCurrDst(2891)
updateCurrDst(2902)
updateCurrDst(3014)
updateCurrDst(3055)
updateCurrDst(3090)
updateCurrDst(3319)
updateCurrDst(3359)
updateCurrDst(3504)
updateCurrDst(3690)
updateCurrDst(3703)
updateCurrDst(3905)
updateCurrDst(3990)
updateCurrDst(4019)
updateCurrDst(4160)
updateCurrDst(4436)
updateCurrDst(4455)
updateCurrDst(4478)
updateCurrDst(4490)
updateCurrDst(4535)
updateCurrDst(4554)
Heartbeat CPU 0 instructions: 8000000 cycles: 2695071 heartbeat IPC: 3.1347 cumulative IPC: 2.96838 (Simulation time: 0 hr 0 min 20 sec) 
updateCurrDst(4972)
updateCurrDst(4995)
updateCurrDst(5137)
updateCurrDst(5270)
updateCurrDst(5673)
updateCurrDst(5696)
updateCurrDst(5720)
updateCurrDst(5768)
updateCurrDst(5771)
updateCurrDst(5961)
updateCurrDst(6088)
updateCurrDst(6146)
updateCurrDst(6160)
updateCurrDst(6444)
updateCurrDst(6475)
updateCurrDst(6507)
updateCurrDst(6687)
Heartbeat CPU 0 instructions: 9000001 cycles: 3014560 heartbeat IPC: 3.13 cumulative IPC: 2.98551 (Simulation time: 0 hr 0 min 23 sec) 
updateCurrDst(6973)
updateCurrDst(7548)
updateCurrDst(7592)
updateCurrDst(7699)
updateCurrDst(7810)
updateCurrDst(7866)
updateCurrDst(7872)
updateCurrDst(7947)
updateCurrDst(8164)
updateCurrDst(8221)
updateCurrDst(8265)
updateCurrDst(8474)
updateCurrDst(8491)
updateCurrDst(8558)
updateCurrDst(8611)
updateCurrDst(8763)
updateCurrDst(8973)
Heartbeat CPU 0 instructions: 10000001 cycles: 3333900 heartbeat IPC: 3.13146 cumulative IPC: 2.99949 (Simulation time: 0 hr 0 min 27 sec) 
updateCurrDst(9340)
updateCurrDst(9583)
updateCurrDst(9684)
updateCurrDst(9717)
updateCurrDst(9761)
updateCurrDst(9959)
updateCurrDst(9964)
updateCurrDst(10096)
updateCurrDst(10140)
updateCurrDst(10234)
updateCurrDst(10379)
updateCurrDst(10518)
updateCurrDst(10630)
updateCurrDst(10746)
updateCurrDst(10898)
updateCurrDst(10954)
updateCurrDst(10978)
Heartbeat CPU 0 instructions: 11000000 cycles: 3653085 heartbeat IPC: 3.13298 cumulative IPC: 3.01115 (Simulation time: 0 hr 0 min 30 sec) 
updateCurrDst(11103)
updateCurrDst(11237)
updateCurrDst(11273)
updateCurrDst(11309)
updateCurrDst(11370)
updateCurrDst(11940)
updateCurrDst(11991)
updateCurrDst(11998)
updateCurrDst(12105)
updateCurrDst(12107)
updateCurrDst(12123)
updateCurrDst(12165)
updateCurrDst(12184)
updateCurrDst(12276)
updateCurrDst(12435)
updateCurrDst(12576)
updateCurrDst(12871)
updateCurrDst(13069)
updateCurrDst(13095)
updateCurrDst(13103)
updateCurrDst(13112)
Heartbeat CPU 0 instructions: 12000002 cycles: 3972376 heartbeat IPC: 3.13195 cumulative IPC: 3.02086 (Simulation time: 0 hr 0 min 33 sec) 
updateCurrDst(13219)
updateCurrDst(13316)
updateCurrDst(13479)
updateCurrDst(13674)
updateCurrDst(13693)
updateCurrDst(13843)
updateCurrDst(13958)
updateCurrDst(13970)
updateCurrDst(14118)
updateCurrDst(14209)
updateCurrDst(14218)
updateCurrDst(14269)
updateCurrDst(14541)
updateCurrDst(14845)
updateCurrDst(14995)
updateCurrDst(15238)
Heartbeat CPU 0 instructions: 13000001 cycles: 4291546 heartbeat IPC: 3.13312 cumulative IPC: 3.02921 (Simulation time: 0 hr 0 min 36 sec) 
updateCurrDst(15287)
updateCurrDst(15305)
updateCurrDst(15466)
updateCurrDst(15568)
updateCurrDst(15637)
updateCurrDst(15853)
updateCurrDst(15946)
updateCurrDst(15952)
updateCurrDst(16039)
updateCurrDst(16240)
updateCurrDst(16398)
updateCurrDst(16403)
updateCurrDst(16482)
updateCurrDst(16514)
updateCurrDst(16551)
updateCurrDst(16583)
updateCurrDst(16798)
updateCurrDst(16920)
updateCurrDst(16937)
updateCurrDst(16999)
updateCurrDst(17064)
updateCurrDst(17082)
updateCurrDst(17259)
Heartbeat CPU 0 instructions: 14000003 cycles: 4610622 heartbeat IPC: 3.13406 cumulative IPC: 3.03647 (Simulation time: 0 hr 0 min 39 sec) 
updateCurrDst(17414)
updateCurrDst(17432)
updateCurrDst(17500)
updateCurrDst(17716)
updateCurrDst(17789)
updateCurrDst(17838)
updateCurrDst(17888)
updateCurrDst(17920)
updateCurrDst(17925)
updateCurrDst(17934)
updateCurrDst(17958)
updateCurrDst(18382)
updateCurrDst(18447)
updateCurrDst(18553)
updateCurrDst(18613)
updateCurrDst(18655)
updateCurrDst(18870)
updateCurrDst(18963)
updateCurrDst(19005)
updateCurrDst(19018)
updateCurrDst(19046)
updateCurrDst(19099)
Heartbeat CPU 0 instructions: 15000002 cycles: 4930091 heartbeat IPC: 3.13019 cumulative IPC: 3.04254 (Simulation time: 0 hr 0 min 42 sec) 
updateCurrDst(19406)
updateCurrDst(19773)
updateCurrDst(19816)
updateCurrDst(19833)
updateCurrDst(19952)
updateCurrDst(20060)
updateCurrDst(20119)
updateCurrDst(20176)
updateCurrDst(20210)
updateCurrDst(20275)
updateCurrDst(20338)
updateCurrDst(20490)
updateCurrDst(20569)
updateCurrDst(20721)
updateCurrDst(20762)
updateCurrDst(20766)
updateCurrDst(20801)
updateCurrDst(20857)
updateCurrDst(20865)
updateCurrDst(20885)
updateCurrDst(21070)
updateCurrDst(21168)
updateCurrDst(21207)
updateCurrDst(21338)
updateCurrDst(21345)
Heartbeat CPU 0 instructions: 16000001 cycles: 5249380 heartbeat IPC: 3.13196 cumulative IPC: 3.04798 (Simulation time: 0 hr 0 min 46 sec) 
updateCurrDst(21482)
updateCurrDst(21550)
updateCurrDst(21685)
updateCurrDst(21743)
updateCurrDst(21981)
updateCurrDst(22037)
updateCurrDst(22186)
updateCurrDst(22233)
updateCurrDst(22350)
updateCurrDst(22590)
updateCurrDst(22763)
updateCurrDst(22773)
updateCurrDst(22847)
updateCurrDst(22856)
updateCurrDst(22955)
updateCurrDst(22987)
updateCurrDst(23056)
updateCurrDst(23079)
updateCurrDst(23131)
updateCurrDst(23175)
updateCurrDst(23371)
Heartbeat CPU 0 instructions: 17000000 cycles: 5568805 heartbeat IPC: 3.13062 cumulative IPC: 3.05272 (Simulation time: 0 hr 0 min 49 sec) 
updateCurrDst(23572)
updateCurrDst(23621)
updateCurrDst(23689)
updateCurrDst(23724)
updateCurrDst(23803)
updateCurrDst(23930)
updateCurrDst(23939)
updateCurrDst(24047)
updateCurrDst(24165)
updateCurrDst(24389)
updateCurrDst(24730)
updateCurrDst(24942)
updateCurrDst(24985)
updateCurrDst(25026)
updateCurrDst(25054)
updateCurrDst(25227)
updateCurrDst(25301)
updateCurrDst(25395)
updateCurrDst(25465)
Heartbeat CPU 0 instructions: 18000001 cycles: 5887814 heartbeat IPC: 3.13471 cumulative IPC: 3.05716 (Simulation time: 0 hr 0 min 52 sec) 
updateCurrDst(25683)
updateCurrDst(25739)
updateCurrDst(26042)
updateCurrDst(26105)
updateCurrDst(26112)
updateCurrDst(26167)
updateCurrDst(26215)
updateCurrDst(26374)
updateCurrDst(26549)
updateCurrDst(26587)
updateCurrDst(26975)
updateCurrDst(27091)
updateCurrDst(27197)
updateCurrDst(27299)
updateCurrDst(27489)
Heartbeat CPU 0 instructions: 19000001 cycles: 6207127 heartbeat IPC: 3.13172 cumulative IPC: 3.061 (Simulation time: 0 hr 0 min 55 sec) 
updateCurrDst(27748)
updateCurrDst(27795)
updateCurrDst(27840)
updateCurrDst(27863)
updateCurrDst(28027)
updateCurrDst(28100)
updateCurrDst(28187)
updateCurrDst(28218)
updateCurrDst(28254)
updateCurrDst(28381)
updateCurrDst(28616)
updateCurrDst(28675)
updateCurrDst(28682)
updateCurrDst(28846)
updateCurrDst(28975)
updateCurrDst(29110)
updateCurrDst(29232)
updateCurrDst(29279)
updateCurrDst(29328)
updateCurrDst(29382)
updateCurrDst(29585)
Heartbeat CPU 0 instructions: 20000002 cycles: 6526405 heartbeat IPC: 3.13207 cumulative IPC: 3.06447 (Simulation time: 0 hr 0 min 57 sec) 
updateCurrDst(29816)
updateCurrDst(29855)
updateCurrDst(29882)
updateCurrDst(30133)
updateCurrDst(30146)
updateCurrDst(30202)
updateCurrDst(30226)
updateCurrDst(30318)
updateCurrDst(30395)
updateCurrDst(30681)
updateCurrDst(30695)
updateCurrDst(30838)
updateCurrDst(30861)
updateCurrDst(30884)
updateCurrDst(30995)
updateCurrDst(31020)
updateCurrDst(31210)
updateCurrDst(31509)
updateCurrDst(31648)
updateCurrDst(31656)
updateCurrDst(31657)
updateCurrDst(31666)
updateCurrDst(31836)
Heartbeat CPU 0 instructions: 21000001 cycles: 6845460 heartbeat IPC: 3.13425 cumulative IPC: 3.06773 (Simulation time: 0 hr 1 min 0 sec) 
updateCurrDst(31864)
updateCurrDst(31879)
updateCurrDst(31980)
updateCurrDst(32035)
updateCurrDst(32110)
updateCurrDst(32114)
updateCurrDst(32159)
updateCurrDst(32325)
updateCurrDst(32371)
updateCurrDst(32402)
updateCurrDst(32478)
updateCurrDst(32488)
updateCurrDst(32534)
updateCurrDst(32705)
updateCurrDst(32809)
updateCurrDst(32934)
updateCurrDst(32980)
updateCurrDst(32990)
updateCurrDst(33083)
updateCurrDst(33112)
updateCurrDst(33319)
updateCurrDst(33337)
updateCurrDst(33355)
updateCurrDst(33395)
updateCurrDst(33421)
updateCurrDst(33438)
updateCurrDst(33775)
updateCurrDst(33890)
updateCurrDst(33914)
Heartbeat CPU 0 instructions: 22000000 cycles: 7164927 heartbeat IPC: 3.13021 cumulative IPC: 3.07051 (Simulation time: 0 hr 1 min 3 sec) 
updateCurrDst(33978)
updateCurrDst(34004)
updateCurrDst(34034)
updateCurrDst(34134)
updateCurrDst(34268)
updateCurrDst(34373)
updateCurrDst(34426)
updateCurrDst(34646)
updateCurrDst(34651)
updateCurrDst(34672)
updateCurrDst(34686)
updateCurrDst(34861)
updateCurrDst(34960)
updateCurrDst(34983)
updateCurrDst(35288)
updateCurrDst(35294)
updateCurrDst(35300)
updateCurrDst(35318)
updateCurrDst(35319)
updateCurrDst(35371)
updateCurrDst(35400)
updateCurrDst(35456)
updateCurrDst(35581)
updateCurrDst(35586)
updateCurrDst(35657)
updateCurrDst(35678)
updateCurrDst(35683)
updateCurrDst(35701)
updateCurrDst(35736)
updateCurrDst(35741)
updateCurrDst(35826)
updateCurrDst(35874)
updateCurrDst(35895)
updateCurrDst(35920)
Heartbeat CPU 0 instructions: 23000000 cycles: 7483933 heartbeat IPC: 3.13474 cumulative IPC: 3.07325 (Simulation time: 0 hr 1 min 7 sec) 
updateCurrDst(36143)
updateCurrDst(36340)
updateCurrDst(36565)
updateCurrDst(36599)
updateCurrDst(36792)
updateCurrDst(37048)
updateCurrDst(37060)
updateCurrDst(37182)
updateCurrDst(37353)
updateCurrDst(37522)
Heartbeat CPU 0 instructions: 24000000 cycles: 7803057 heartbeat IPC: 3.13358 cumulative IPC: 3.07572 (Simulation time: 0 hr 1 min 10 sec) 
updateCurrDst(38147)
updateCurrDst(38285)
updateCurrDst(38345)
updateCurrDst(38347)
updateCurrDst(38577)
updateCurrDst(38607)
updateCurrDst(38872)
updateCurrDst(39024)
updateCurrDst(39048)
updateCurrDst(39089)
updateCurrDst(39245)
updateCurrDst(39297)
updateCurrDst(39338)
updateCurrDst(39419)
updateCurrDst(39483)
updateCurrDst(39660)
updateCurrDst(39703)
updateCurrDst(39730)
updateCurrDst(39899)
updateCurrDst(39967)
Heartbeat CPU 0 instructions: 25000002 cycles: 8122207 heartbeat IPC: 3.13333 cumulative IPC: 3.07798 (Simulation time: 0 hr 1 min 13 sec) 
updateCurrDst(40156)
updateCurrDst(40255)
updateCurrDst(40261)
updateCurrDst(40308)
updateCurrDst(40438)
updateCurrDst(40557)
updateCurrDst(40660)
updateCurrDst(40835)
updateCurrDst(40864)
updateCurrDst(40874)
updateCurrDst(40929)
updateCurrDst(40993)
updateCurrDst(41318)
updateCurrDst(41365)
updateCurrDst(41492)
updateCurrDst(41579)
updateCurrDst(41583)
updateCurrDst(41713)
updateCurrDst(41770)
updateCurrDst(41934)
updateCurrDst(42062)
Heartbeat CPU 0 instructions: 26000000 cycles: 8441749 heartbeat IPC: 3.12947 cumulative IPC: 3.07993 (Simulation time: 0 hr 1 min 17 sec) 
updateCurrDst(42248)
updateCurrDst(42371)
updateCurrDst(42385)
updateCurrDst(42454)
updateCurrDst(42508)
updateCurrDst(42587)
updateCurrDst(42591)
updateCurrDst(42686)
updateCurrDst(42696)
updateCurrDst(42746)
updateCurrDst(42753)
updateCurrDst(42866)
updateCurrDst(42873)
updateCurrDst(42886)
updateCurrDst(43007)
updateCurrDst(43282)
updateCurrDst(43366)
updateCurrDst(43393)
updateCurrDst(43433)
updateCurrDst(43435)
updateCurrDst(43730)
updateCurrDst(43786)
updateCurrDst(43860)
updateCurrDst(43874)
updateCurrDst(43903)
updateCurrDst(44001)
updateCurrDst(44100)
updateCurrDst(44173)
updateCurrDst(44259)
Heartbeat CPU 0 instructions: 27000000 cycles: 8761225 heartbeat IPC: 3.13013 cumulative IPC: 3.08176 (Simulation time: 0 hr 1 min 20 sec) 
updateCurrDst(44326)
updateCurrDst(44446)
updateCurrDst(44452)
updateCurrDst(44716)
updateCurrDst(44838)
updateCurrDst(44890)
updateCurrDst(44977)
updateCurrDst(45016)
updateCurrDst(45102)
updateCurrDst(45238)
updateCurrDst(45275)
updateCurrDst(45900)
updateCurrDst(45957)
updateCurrDst(45986)
updateCurrDst(46113)
updateCurrDst(46114)
updateCurrDst(46173)
updateCurrDst(46183)
updateCurrDst(46311)
updateCurrDst(46313)
Heartbeat CPU 0 instructions: 28000000 cycles: 9080592 heartbeat IPC: 3.13119 cumulative IPC: 3.0835 (Simulation time: 0 hr 1 min 23 sec) 
updateCurrDst(46440)
updateCurrDst(46555)
updateCurrDst(46576)
updateCurrDst(46697)
updateCurrDst(46830)
updateCurrDst(47058)
updateCurrDst(47089)
updateCurrDst(47106)
updateCurrDst(47241)
updateCurrDst(47317)
updateCurrDst(47354)
updateCurrDst(47366)
updateCurrDst(47584)
updateCurrDst(47612)
updateCurrDst(47621)
updateCurrDst(47997)
updateCurrDst(48036)
updateCurrDst(48130)
updateCurrDst(48149)
updateCurrDst(48167)
updateCurrDst(48238)
updateCurrDst(48393)
Heartbeat CPU 0 instructions: 29000000 cycles: 9399779 heartbeat IPC: 3.13296 cumulative IPC: 3.08518 (Simulation time: 0 hr 1 min 27 sec) 
updateCurrDst(48495)
updateCurrDst(48587)
updateCurrDst(48731)
updateCurrDst(48947)
updateCurrDst(49050)
updateCurrDst(49123)
updateCurrDst(49137)
updateCurrDst(49198)
updateCurrDst(49257)
updateCurrDst(49370)
updateCurrDst(49578)
updateCurrDst(49765)
updateCurrDst(50305)
updateCurrDst(50501)
updateCurrDst(50539)
Heartbeat CPU 0 instructions: 30000001 cycles: 9719421 heartbeat IPC: 3.1285 cumulative IPC: 3.0866 (Simulation time: 0 hr 1 min 30 sec) 
updateCurrDst(50683)
updateCurrDst(50698)
updateCurrDst(50797)
updateCurrDst(51018)
updateCurrDst(51042)
updateCurrDst(51096)
updateCurrDst(51104)
updateCurrDst(51318)
updateCurrDst(51328)
updateCurrDst(51507)
updateCurrDst(51668)
updateCurrDst(51684)
updateCurrDst(51788)
updateCurrDst(51835)
updateCurrDst(51838)
updateCurrDst(52030)
updateCurrDst(52036)
updateCurrDst(52277)
updateCurrDst(52454)
updateCurrDst(52624)
Heartbeat CPU 0 instructions: 31000001 cycles: 10038845 heartbeat IPC: 3.13064 cumulative IPC: 3.088 (Simulation time: 0 hr 1 min 33 sec) 
updateCurrDst(52682)
updateCurrDst(52762)
updateCurrDst(52765)
updateCurrDst(52865)
updateCurrDst(52885)
updateCurrDst(52917)
updateCurrDst(53024)
updateCurrDst(53029)
updateCurrDst(53068)
updateCurrDst(53256)
updateCurrDst(53536)
updateCurrDst(53690)
updateCurrDst(53947)
updateCurrDst(54020)
updateCurrDst(54048)
updateCurrDst(54085)
updateCurrDst(54146)
updateCurrDst(54287)
updateCurrDst(54331)
updateCurrDst(54373)
updateCurrDst(54394)
Heartbeat CPU 0 instructions: 32000002 cycles: 10358129 heartbeat IPC: 3.13201 cumulative IPC: 3.08936 (Simulation time: 0 hr 1 min 36 sec) 
updateCurrDst(54839)
updateCurrDst(54858)
updateCurrDst(54909)
updateCurrDst(55071)
updateCurrDst(55323)
updateCurrDst(55450)
updateCurrDst(55489)
updateCurrDst(55557)
updateCurrDst(55579)
updateCurrDst(55597)
updateCurrDst(55752)
updateCurrDst(55801)
updateCurrDst(55814)
updateCurrDst(55937)
updateCurrDst(55940)
updateCurrDst(56181)
updateCurrDst(56292)
updateCurrDst(56362)
updateCurrDst(56399)
updateCurrDst(56686)
Heartbeat CPU 0 instructions: 33000000 cycles: 10677572 heartbeat IPC: 3.13044 cumulative IPC: 3.09059 (Simulation time: 0 hr 1 min 39 sec) 
updateCurrDst(57379)
updateCurrDst(57385)
updateCurrDst(57549)
updateCurrDst(57752)
updateCurrDst(57860)
updateCurrDst(57936)
updateCurrDst(57937)
updateCurrDst(58059)
updateCurrDst(58313)
updateCurrDst(58343)
updateCurrDst(58382)
updateCurrDst(58537)
updateCurrDst(58540)
updateCurrDst(58625)
updateCurrDst(58631)
updateCurrDst(58661)
Heartbeat CPU 0 instructions: 34000002 cycles: 10996948 heartbeat IPC: 3.13111 cumulative IPC: 3.09177 (Simulation time: 0 hr 1 min 42 sec) 

Warmup complete CPU 0 instructions: 34000002 cycles: 10996948 (Simulation time: 0 hr 1 min 42 sec) 

updateCurrDst(59013)
updateCurrDst(59124)
updateCurrDst(59171)
updateCurrDst(59338)
updateCurrDst(59415)
updateCurrDst(59479)
updateCurrDst(59499)
updateCurrDst(59615)
updateCurrDst(59628)
updateCurrDst(59679)
updateCurrDst(59685)
updateCurrDst(59707)
updateCurrDst(59716)
updateCurrDst(59739)
updateCurrDst(59828)
updateCurrDst(59945)
updateCurrDst(60538)
updateCurrDst(60605)
updateCurrDst(60621)
updateCurrDst(60655)
updateCurrDst(60657)
updateCurrDst(60780)
updateCurrDst(60790)
updateCurrDst(60913)
updateCurrDst(60939)
Heartbeat CPU 0 instructions: 35000001 cycles: 14022700 heartbeat IPC: 0.330496 cumulative IPC: 0.330496 (Simulation time: 0 hr 1 min 46 sec) 
updateCurrDst(61053)
updateCurrDst(61137)
updateCurrDst(61155)
updateCurrDst(61326)
updateCurrDst(61368)
updateCurrDst(61476)
updateCurrDst(61517)
updateCurrDst(61598)
updateCurrDst(61816)
updateCurrDst(61984)
updateCurrDst(62172)
updateCurrDst(62211)
updateCurrDst(62307)
updateCurrDst(62711)
updateCurrDst(62743)
updateCurrDst(62799)
updateCurrDst(62826)
updateCurrDst(62918)
updateCurrDst(63026)
Heartbeat CPU 0 instructions: 36000002 cycles: 17048660 heartbeat IPC: 0.330474 cumulative IPC: 0.330485 (Simulation time: 0 hr 1 min 50 sec) 
updateCurrDst(63065)
updateCurrDst(63103)
updateCurrDst(63171)
updateCurrDst(63329)
updateCurrDst(63432)
updateCurrDst(63474)
updateCurrDst(63521)
updateCurrDst(63615)
updateCurrDst(63708)
updateCurrDst(63792)
updateCurrDst(63805)
updateCurrDst(64051)
updateCurrDst(64079)
updateCurrDst(64183)
updateCurrDst(64248)
updateCurrDst(64372)
updateCurrDst(64405)
updateCurrDst(64614)
updateCurrDst(64619)
updateCurrDst(64669)
updateCurrDst(64729)
updateCurrDst(64749)
updateCurrDst(64781)
updateCurrDst(64900)
updateCurrDst(65113)
Heartbeat CPU 0 instructions: 37000000 cycles: 20075177 heartbeat IPC: 0.330412 cumulative IPC: 0.330461 (Simulation time: 0 hr 1 min 53 sec) 
updateCurrDst(65157)
updateCurrDst(65189)
updateCurrDst(65298)
updateCurrDst(65483)
updateCurrDst(65744)
updateCurrDst(66002)
updateCurrDst(66176)
updateCurrDst(66316)
updateCurrDst(66376)
updateCurrDst(66425)
updateCurrDst(66429)
updateCurrDst(66816)
updateCurrDst(66988)
updateCurrDst(67104)
Heartbeat CPU 0 instructions: 38000002 cycles: 23099396 heartbeat IPC: 0.330665 cumulative IPC: 0.330512 (Simulation time: 0 hr 1 min 57 sec) 
updateCurrDst(67261)
updateCurrDst(67321)
updateCurrDst(67546)
updateCurrDst(67609)
updateCurrDst(67777)
updateCurrDst(67791)
updateCurrDst(67860)
updateCurrDst(67891)
updateCurrDst(68018)
updateCurrDst(68036)
updateCurrDst(68254)
updateCurrDst(68456)
updateCurrDst(68634)
updateCurrDst(68700)
updateCurrDst(68855)
updateCurrDst(68856)
updateCurrDst(69182)
updateCurrDst(69205)
updateCurrDst(69227)
updateCurrDst(69275)
Heartbeat CPU 0 instructions: 39000002 cycles: 26125111 heartbeat IPC: 0.3305 cumulative IPC: 0.330509 (Simulation time: 0 hr 2 min 0 sec) 
updateCurrDst(69354)
updateCurrDst(69442)
updateCurrDst(69507)
updateCurrDst(69549)
updateCurrDst(69588)
updateCurrDst(69913)
updateCurrDst(70065)
updateCurrDst(70275)
updateCurrDst(70325)
updateCurrDst(70376)
updateCurrDst(70426)
updateCurrDst(70487)
updateCurrDst(70515)
updateCurrDst(70644)
updateCurrDst(70680)
updateCurrDst(70810)
updateCurrDst(70832)
updateCurrDst(70883)
updateCurrDst(71241)
updateCurrDst(71253)
Heartbeat CPU 0 instructions: 40000000 cycles: 29149579 heartbeat IPC: 0.330636 cumulative IPC: 0.33053 (Simulation time: 0 hr 2 min 4 sec) 
updateCurrDst(71402)
updateCurrDst(71605)
updateCurrDst(72015)
updateCurrDst(72120)
updateCurrDst(72197)
updateCurrDst(72241)
updateCurrDst(72298)
updateCurrDst(72488)
updateCurrDst(72728)
updateCurrDst(72768)
updateCurrDst(72793)
updateCurrDst(73114)
updateCurrDst(73138)
updateCurrDst(73180)
updateCurrDst(73247)
Heartbeat CPU 0 instructions: 41000000 cycles: 32177356 heartbeat IPC: 0.330275 cumulative IPC: 0.330494 (Simulation time: 0 hr 2 min 7 sec) 
updateCurrDst(73524)
updateCurrDst(73528)
updateCurrDst(73626)
updateCurrDst(73696)
updateCurrDst(73833)
updateCurrDst(73937)
updateCurrDst(74035)
updateCurrDst(74105)
updateCurrDst(74297)
updateCurrDst(74358)
updateCurrDst(74466)
updateCurrDst(74577)
updateCurrDst(74657)
updateCurrDst(74671)
updateCurrDst(74901)
updateCurrDst(75051)
updateCurrDst(75300)
updateCurrDst(75306)
updateCurrDst(75445)
updateCurrDst(75498)
Heartbeat CPU 0 instructions: 42000000 cycles: 35157743 heartbeat IPC: 0.335527 cumulative IPC: 0.331115 (Simulation time: 0 hr 2 min 11 sec) 
updateCurrDst(75682)
updateCurrDst(75957)
updateCurrDst(76022)
updateCurrDst(76106)
updateCurrDst(76392)
updateCurrDst(76602)
updateCurrDst(76676)
updateCurrDst(76771)
updateCurrDst(77231)
updateCurrDst(77257)
updateCurrDst(77280)
updateCurrDst(77304)
Heartbeat CPU 0 instructions: 43000000 cycles: 38132834 heartbeat IPC: 0.336124 cumulative IPC: 0.331664 (Simulation time: 0 hr 2 min 14 sec) 
updateCurrDst(77593)
updateCurrDst(77602)
updateCurrDst(77647)
updateCurrDst(77872)
updateCurrDst(78018)
updateCurrDst(78127)
updateCurrDst(78156)
updateCurrDst(78283)
updateCurrDst(78446)
updateCurrDst(78763)
updateCurrDst(78974)
updateCurrDst(79000)
updateCurrDst(79330)
updateCurrDst(79443)
updateCurrDst(79468)
updateCurrDst(79591)
updateCurrDst(79652)
updateCurrDst(79669)
Heartbeat CPU 0 instructions: 44000000 cycles: 41098764 heartbeat IPC: 0.337162 cumulative IPC: 0.332206 (Simulation time: 0 hr 2 min 17 sec) 
updateCurrDst(79727)
updateCurrDst(79732)
updateCurrDst(79945)
updateCurrDst(80119)
updateCurrDst(80149)
updateCurrDst(80265)
updateCurrDst(80478)
updateCurrDst(80509)
updateCurrDst(80740)
updateCurrDst(80994)
updateCurrDst(81362)
updateCurrDst(81407)
updateCurrDst(81413)
updateCurrDst(81457)
updateCurrDst(81496)
updateCurrDst(81564)
updateCurrDst(81678)
Heartbeat CPU 0 instructions: 45000000 cycles: 44098592 heartbeat IPC: 0.333352 cumulative IPC: 0.33231 (Simulation time: 0 hr 2 min 21 sec) 
updateCurrDst(81907)
updateCurrDst(81948)
updateCurrDst(82289)
updateCurrDst(82656)
updateCurrDst(82712)
updateCurrDst(82779)
updateCurrDst(82798)
updateCurrDst(82830)
updateCurrDst(82833)
updateCurrDst(82848)
updateCurrDst(82851)
updateCurrDst(82877)
updateCurrDst(82904)
updateCurrDst(82950)
updateCurrDst(83011)
updateCurrDst(83138)
updateCurrDst(83166)
updateCurrDst(83169)
updateCurrDst(83184)
updateCurrDst(83264)
updateCurrDst(83280)
updateCurrDst(83596)
updateCurrDst(83659)
Heartbeat CPU 0 instructions: 46000000 cycles: 47059279 heartbeat IPC: 0.337759 cumulative IPC: 0.332757 (Simulation time: 0 hr 2 min 24 sec) 
updateCurrDst(83890)
updateCurrDst(83947)
updateCurrDst(84257)
updateCurrDst(84272)
updateCurrDst(84394)
updateCurrDst(84749)
updateCurrDst(84766)
updateCurrDst(84790)
updateCurrDst(84792)
updateCurrDst(84809)
updateCurrDst(84835)
updateCurrDst(85077)
updateCurrDst(85331)
updateCurrDst(85350)
updateCurrDst(85502)
updateCurrDst(85528)
updateCurrDst(85696)
updateCurrDst(85767)
updateCurrDst(85785)
updateCurrDst(85800)
Heartbeat CPU 0 instructions: 47000001 cycles: 50019778 heartbeat IPC: 0.337781 cumulative IPC: 0.333138 (Simulation time: 0 hr 2 min 28 sec) 
updateCurrDst(85945)
updateCurrDst(85974)
updateCurrDst(86030)
updateCurrDst(86147)
updateCurrDst(86191)
updateCurrDst(86279)
updateCurrDst(86483)
updateCurrDst(86602)
updateCurrDst(86657)
updateCurrDst(86665)
updateCurrDst(86685)
updateCurrDst(86744)
updateCurrDst(86859)
updateCurrDst(86908)
updateCurrDst(86950)
updateCurrDst(86992)
updateCurrDst(87007)
updateCurrDst(87038)
updateCurrDst(87181)
updateCurrDst(87251)
updateCurrDst(87561)
updateCurrDst(87590)
updateCurrDst(87686)
updateCurrDst(87707)
updateCurrDst(87753)
updateCurrDst(87754)
updateCurrDst(87787)
updateCurrDst(87852)
updateCurrDst(87886)
Heartbeat CPU 0 instructions: 48000000 cycles: 52982873 heartbeat IPC: 0.337485 cumulative IPC: 0.333445 (Simulation time: 0 hr 2 min 31 sec) 
updateCurrDst(88214)
updateCurrDst(88389)
updateCurrDst(88440)
updateCurrDst(88555)
updateCurrDst(88664)
updateCurrDst(88742)
updateCurrDst(88776)
updateCurrDst(88885)
updateCurrDst(89021)
updateCurrDst(89212)
updateCurrDst(89243)
updateCurrDst(89273)
updateCurrDst(89433)
updateCurrDst(89592)
updateCurrDst(89660)
updateCurrDst(89663)
Heartbeat CPU 0 instructions: 49000001 cycles: 55948663 heartbeat IPC: 0.337179 cumulative IPC: 0.333691 (Simulation time: 0 hr 2 min 35 sec) 
updateCurrDst(90126)
updateCurrDst(90157)
updateCurrDst(90220)
updateCurrDst(90374)
updateCurrDst(90949)
updateCurrDst(91238)
updateCurrDst(91344)
updateCurrDst(91392)
updateCurrDst(91539)
updateCurrDst(91584)
updateCurrDst(91588)
updateCurrDst(91596)
updateCurrDst(92056)
updateCurrDst(92117)
Heartbeat CPU 0 instructions: 50000001 cycles: 58905184 heartbeat IPC: 0.338235 cumulative IPC: 0.333972 (Simulation time: 0 hr 2 min 39 sec) 
updateCurrDst(92409)
updateCurrDst(92774)
updateCurrDst(92935)
updateCurrDst(92969)
updateCurrDst(93098)
updateCurrDst(93166)
updateCurrDst(93292)
updateCurrDst(93304)
updateCurrDst(93361)
updateCurrDst(93484)
updateCurrDst(93557)
updateCurrDst(93642)
updateCurrDst(93650)
updateCurrDst(93680)
updateCurrDst(93728)
updateCurrDst(93835)
updateCurrDst(93852)
updateCurrDst(93866)
updateCurrDst(93872)
updateCurrDst(93945)
updateCurrDst(94107)
updateCurrDst(94136)
updateCurrDst(94173)
Heartbeat CPU 0 instructions: 51000001 cycles: 61866204 heartbeat IPC: 0.337721 cumulative IPC: 0.33419 (Simulation time: 0 hr 2 min 42 sec) 
updateCurrDst(94258)
updateCurrDst(94271)
updateCurrDst(94302)
updateCurrDst(94412)
updateCurrDst(94415)
updateCurrDst(94423)
updateCurrDst(94510)
updateCurrDst(94534)
updateCurrDst(94536)
updateCurrDst(94683)
updateCurrDst(94778)
updateCurrDst(95111)
updateCurrDst(95114)
updateCurrDst(95195)
updateCurrDst(95221)
updateCurrDst(95326)
updateCurrDst(95396)
updateCurrDst(95601)
updateCurrDst(95687)
updateCurrDst(95694)
updateCurrDst(95805)
updateCurrDst(95852)
updateCurrDst(96130)
updateCurrDst(96196)
Heartbeat CPU 0 instructions: 52000001 cycles: 64826829 heartbeat IPC: 0.337767 cumulative IPC: 0.334387 (Simulation time: 0 hr 2 min 45 sec) 
updateCurrDst(96400)
updateCurrDst(96542)
updateCurrDst(96554)
updateCurrDst(96615)
updateCurrDst(96617)
updateCurrDst(96632)
updateCurrDst(96684)
updateCurrDst(96765)
updateCurrDst(96831)
updateCurrDst(96863)
updateCurrDst(96867)
updateCurrDst(96902)
updateCurrDst(96973)
updateCurrDst(97182)
updateCurrDst(97237)
updateCurrDst(97248)
updateCurrDst(97269)
updateCurrDst(97489)
updateCurrDst(97581)
updateCurrDst(97998)
updateCurrDst(98102)
updateCurrDst(98106)
updateCurrDst(98123)
updateCurrDst(98169)
updateCurrDst(98171)
updateCurrDst(98324)
Heartbeat CPU 0 instructions: 53000001 cycles: 67785840 heartbeat IPC: 0.337951 cumulative IPC: 0.334572 (Simulation time: 0 hr 2 min 49 sec) 
updateCurrDst(98403)
updateCurrDst(98411)
updateCurrDst(98513)
updateCurrDst(98892)
updateCurrDst(99189)
updateCurrDst(99324)
updateCurrDst(99584)
updateCurrDst(99835)
updateCurrDst(99854)
updateCurrDst(99904)
updateCurrDst(100040)
updateCurrDst(100078)
updateCurrDst(100084)
updateCurrDst(100092)
updateCurrDst(100126)
Heartbeat CPU 0 instructions: 54000001 cycles: 70746776 heartbeat IPC: 0.337731 cumulative IPC: 0.334729 (Simulation time: 0 hr 2 min 52 sec) 
updateCurrDst(100532)
updateCurrDst(100605)
updateCurrDst(100620)
updateCurrDst(100707)
updateCurrDst(100709)
updateCurrDst(101070)
updateCurrDst(101237)
updateCurrDst(101572)
updateCurrDst(101656)
updateCurrDst(101786)
updateCurrDst(101873)
updateCurrDst(101875)
updateCurrDst(101900)
updateCurrDst(101916)
updateCurrDst(102067)
updateCurrDst(102181)
updateCurrDst(102197)
updateCurrDst(102347)
updateCurrDst(102467)
Heartbeat CPU 0 instructions: 55000000 cycles: 73706865 heartbeat IPC: 0.337827 cumulative IPC: 0.334875 (Simulation time: 0 hr 2 min 56 sec) 
updateCurrDst(102563)
updateCurrDst(102635)
updateCurrDst(102700)
updateCurrDst(102733)
updateCurrDst(102776)
updateCurrDst(102791)
updateCurrDst(102947)
updateCurrDst(102964)
updateCurrDst(103056)
updateCurrDst(103120)
updateCurrDst(103155)
updateCurrDst(103217)
updateCurrDst(103219)
updateCurrDst(103273)
updateCurrDst(103309)
updateCurrDst(103378)
updateCurrDst(103609)
updateCurrDst(103678)
updateCurrDst(103719)
updateCurrDst(104103)
updateCurrDst(104173)
updateCurrDst(104267)
updateCurrDst(104381)
updateCurrDst(104422)
updateCurrDst(104493)
updateCurrDst(104552)
updateCurrDst(104623)
updateCurrDst(104630)
Heartbeat CPU 0 instructions: 56000002 cycles: 76664229 heartbeat IPC: 0.33814 cumulative IPC: 0.335022 (Simulation time: 0 hr 2 min 59 sec) 
updateCurrDst(104652)
updateCurrDst(104689)
updateCurrDst(104856)
updateCurrDst(105414)
updateCurrDst(105822)
updateCurrDst(105936)
updateCurrDst(105973)
updateCurrDst(106102)
updateCurrDst(106158)
updateCurrDst(106276)
updateCurrDst(106604)
updateCurrDst(106643)
updateCurrDst(106655)
Heartbeat CPU 0 instructions: 57000000 cycles: 79623414 heartbeat IPC: 0.33793 cumulative IPC: 0.335148 (Simulation time: 0 hr 3 min 2 sec) 
updateCurrDst(106745)
updateCurrDst(106831)
updateCurrDst(107238)
updateCurrDst(107312)
updateCurrDst(107352)
updateCurrDst(107420)
updateCurrDst(107661)
updateCurrDst(107943)
updateCurrDst(108019)
updateCurrDst(108060)
updateCurrDst(108083)
updateCurrDst(108192)
updateCurrDst(108277)
updateCurrDst(108285)
updateCurrDst(108349)
updateCurrDst(108415)
updateCurrDst(108548)
updateCurrDst(108603)
updateCurrDst(108644)
updateCurrDst(108733)
updateCurrDst(108789)
updateCurrDst(108813)
updateCurrDst(108830)
Heartbeat CPU 0 instructions: 58000000 cycles: 82583230 heartbeat IPC: 0.337859 cumulative IPC: 0.33526 (Simulation time: 0 hr 3 min 6 sec) 
updateCurrDst(109391)
updateCurrDst(109559)
updateCurrDst(109703)
updateCurrDst(110335)
updateCurrDst(110336)
updateCurrDst(110386)
updateCurrDst(110504)
updateCurrDst(110527)
updateCurrDst(110559)
Heartbeat CPU 0 instructions: 59000002 cycles: 85540384 heartbeat IPC: 0.338164 cumulative IPC: 0.335375 (Simulation time: 0 hr 3 min 9 sec) 
updateCurrDst(110956)
updateCurrDst(111031)
updateCurrDst(111239)
updateCurrDst(111370)
updateCurrDst(111542)
updateCurrDst(111679)
updateCurrDst(111718)
updateCurrDst(111782)
updateCurrDst(111787)
updateCurrDst(111789)
updateCurrDst(111857)
updateCurrDst(111885)
updateCurrDst(111925)
updateCurrDst(112022)
updateCurrDst(112067)
updateCurrDst(112209)
updateCurrDst(112465)
updateCurrDst(112696)
updateCurrDst(112730)
updateCurrDst(112774)
updateCurrDst(112819)
Heartbeat CPU 0 instructions: 60000000 cycles: 88502463 heartbeat IPC: 0.3376 cumulative IPC: 0.33546 (Simulation time: 0 hr 3 min 12 sec) 
updateCurrDst(113000)
updateCurrDst(113093)
updateCurrDst(113127)
updateCurrDst(113258)
updateCurrDst(113284)
updateCurrDst(113553)
updateCurrDst(113568)
updateCurrDst(113718)
updateCurrDst(113825)
updateCurrDst(113916)
updateCurrDst(113978)
updateCurrDst(114001)
updateCurrDst(114053)
updateCurrDst(114561)
updateCurrDst(114671)
updateCurrDst(114793)
updateCurrDst(114904)
updateCurrDst(115017)
Heartbeat CPU 0 instructions: 61000000 cycles: 91465149 heartbeat IPC: 0.337532 cumulative IPC: 0.335536 (Simulation time: 0 hr 3 min 16 sec) 
updateCurrDst(115066)
updateCurrDst(115118)
updateCurrDst(115410)
updateCurrDst(115684)
updateCurrDst(115703)
updateCurrDst(115831)
updateCurrDst(115959)
updateCurrDst(116387)
updateCurrDst(116473)
updateCurrDst(116502)
updateCurrDst(116627)
updateCurrDst(116669)
updateCurrDst(116740)
updateCurrDst(116787)
updateCurrDst(116965)
updateCurrDst(116988)
Heartbeat CPU 0 instructions: 62000000 cycles: 94420853 heartbeat IPC: 0.338329 cumulative IPC: 0.335635 (Simulation time: 0 hr 3 min 19 sec) 
updateCurrDst(117174)
updateCurrDst(117211)
updateCurrDst(117214)
updateCurrDst(117642)
updateCurrDst(117899)
updateCurrDst(117908)
updateCurrDst(118000)
updateCurrDst(118158)
updateCurrDst(118194)
updateCurrDst(118261)
updateCurrDst(118326)
updateCurrDst(118371)
updateCurrDst(118530)
updateCurrDst(118632)
updateCurrDst(118729)
updateCurrDst(118834)
updateCurrDst(119208)
Heartbeat CPU 0 instructions: 63000000 cycles: 97379024 heartbeat IPC: 0.338047 cumulative IPC: 0.335718 (Simulation time: 0 hr 3 min 23 sec) 
updateCurrDst(119371)
updateCurrDst(119434)
updateCurrDst(119472)
updateCurrDst(119724)
updateCurrDst(119894)
updateCurrDst(119930)
updateCurrDst(120054)
updateCurrDst(120379)
updateCurrDst(120438)
updateCurrDst(120493)
updateCurrDst(120566)
updateCurrDst(120592)
updateCurrDst(120634)
updateCurrDst(120839)
updateCurrDst(120935)
updateCurrDst(120964)
updateCurrDst(121102)
updateCurrDst(121142)
updateCurrDst(121148)
Heartbeat CPU 0 instructions: 64000000 cycles: 100340017 heartbeat IPC: 0.337725 cumulative IPC: 0.335784 (Simulation time: 0 hr 3 min 26 sec) 
updateCurrDst(121568)
updateCurrDst(121639)
updateCurrDst(121670)
updateCurrDst(121752)
updateCurrDst(121769)
updateCurrDst(121789)
updateCurrDst(121874)
updateCurrDst(122086)
updateCurrDst(122207)
updateCurrDst(122269)
updateCurrDst(122334)
updateCurrDst(122433)
updateCurrDst(122449)
updateCurrDst(122580)
updateCurrDst(122630)
updateCurrDst(122808)
updateCurrDst(123189)
Heartbeat CPU 0 instructions: 65000000 cycles: 103297742 heartbeat IPC: 0.338098 cumulative IPC: 0.335858 (Simulation time: 0 hr 3 min 29 sec) 
updateCurrDst(123448)
updateCurrDst(123534)
updateCurrDst(123623)
updateCurrDst(123650)
updateCurrDst(123687)
updateCurrDst(123702)
updateCurrDst(123959)
updateCurrDst(123960)
updateCurrDst(124010)
updateCurrDst(124068)
updateCurrDst(124078)
updateCurrDst(124217)
updateCurrDst(124374)
updateCurrDst(124891)
updateCurrDst(125185)
updateCurrDst(125265)
updateCurrDst(125420)
Heartbeat CPU 0 instructions: 66000000 cycles: 106257789 heartbeat IPC: 0.337832 cumulative IPC: 0.33592 (Simulation time: 0 hr 3 min 33 sec) 
updateCurrDst(125673)
updateCurrDst(125855)
updateCurrDst(125927)
updateCurrDst(125929)
updateCurrDst(125970)
updateCurrDst(126230)
updateCurrDst(126291)
updateCurrDst(126323)
updateCurrDst(126453)
updateCurrDst(126474)
updateCurrDst(126830)
updateCurrDst(126898)
updateCurrDst(127063)
updateCurrDst(127346)
updateCurrDst(127403)
updateCurrDst(127465)
Heartbeat CPU 0 instructions: 67000002 cycles: 109216758 heartbeat IPC: 0.337956 cumulative IPC: 0.335981 (Simulation time: 0 hr 3 min 36 sec) 
updateCurrDst(127518)
updateCurrDst(127726)
updateCurrDst(127758)
updateCurrDst(128001)
updateCurrDst(128030)
updateCurrDst(128194)
updateCurrDst(128195)
updateCurrDst(128238)
updateCurrDst(128362)
updateCurrDst(128531)
updateCurrDst(128540)
updateCurrDst(128565)
updateCurrDst(128610)
updateCurrDst(128814)
updateCurrDst(128872)
updateCurrDst(128876)
updateCurrDst(128933)
updateCurrDst(129097)
updateCurrDst(129189)
updateCurrDst(129324)
updateCurrDst(129348)
updateCurrDst(129388)
*** Reached end of trace for Core: 0 Repeating trace: ./tracer/pull_u17_k3.xzafter: 68000000
Heartbeat CPU 0 instructions: 68000002 cycles: 112176917 heartbeat IPC: 0.33782 cumulative IPC: 0.336035 (Simulation time: 0 hr 3 min 39 sec) 
Finished CPU 0 instructions: 34000000 cycles: 101179969 cumulative IPC: 0.336035 (Simulation time: 0 hr 3 min 39 sec) 

ChampSim completed all CPUs

Region of Interest Statistics

CPU 0 cumulative IPC: 0.336035 instructions: 34000000 cycles: 101179969

Total ROB STALLS:                   12922811
STLB MISS ROB STALLS:                    414
L1D  LOAD MISS ROB STALLS:            428038  Translation MISS ROB STALLS:             0
L2C  LOAD MISS ROB STALLS:            110927  Translation MISS ROB STALLS:             0
LLC  LOAD MISS ROB STALLS:             28709  Translation MISS ROB STALLS:             0

ITLB TOTAL     ACCESS:           4598153  HIT:    4598153  MISS:          0  HIT %:        100  MISS %:          0   MPKI: 0
ITLB LOAD TRANSLATION ACCESS:    4598153  HIT:    4598153  MISS:          0  HIT %:        100  MISS %:          0   MPKI: 0
ITLB AVERAGE MISS LATENCY:          -nan cycles
ITLB RQ ACCESS:     5018418	FORWARD:           0	MERGED:       420265	TO_CACHE:    4598153

DTLB TOTAL     ACCESS:          10097631  HIT:    9863135  MISS:     234496  HIT %:    97.6777  MISS %:    2.32229   MPKI: 6.89694
DTLB LOAD TRANSLATION ACCESS:   10097631  HIT:    9863135  MISS:     234496  HIT %:    97.6777  MISS %:    2.32229   MPKI: 6.89694
DTLB AVERAGE MISS LATENCY:       9.44314 cycles
DTLB RQ ACCESS:    13589263	FORWARD:           0	MERGED:      3491632	TO_CACHE:   10097631

STLB TOTAL     ACCESS:            234496  HIT:     234082  MISS:        414  HIT %:    99.8235  MISS %:   0.176549   MPKI: 0.0121765
STLB LOAD TRANSLATION ACCESS:     234496  HIT:     234082  MISS:        414  HIT %:    99.8235  MISS %:   0.176549   MPKI: 0.0121765
STLB AVERAGE MISS LATENCY:           251 cycles
STLB RQ ACCESS:      234496	FORWARD:           0	MERGED:            0	TO_CACHE:     234496

PSCL5 TOTAL     ACCESS:               414  HIT:        414  MISS:          0  HIT %:        100  MISS %:          0   MPKI: 0
PSCL5 LOAD TRANSLATION ACCESS:        414  HIT:        414  MISS:          0  HIT %:        100  MISS %:          0   MPKI: 0

PSCL4 TOTAL     ACCESS:               414  HIT:        414  MISS:          0  HIT %:        100  MISS %:          0   MPKI: 0
PSCL4 LOAD TRANSLATION ACCESS:        414  HIT:        414  MISS:          0  HIT %:        100  MISS %:          0   MPKI: 0

PSCL3 TOTAL     ACCESS:               414  HIT:        414  MISS:          0  HIT %:        100  MISS %:          0   MPKI: 0
PSCL3 LOAD TRANSLATION ACCESS:        414  HIT:        414  MISS:          0  HIT %:        100  MISS %:          0   MPKI: 0

PSCL2 TOTAL     ACCESS:               414  HIT:        414  MISS:          0  HIT %:        100  MISS %:          0   MPKI: 0
PSCL2 LOAD TRANSLATION ACCESS:        414  HIT:        414  MISS:          0  HIT %:        100  MISS %:          0   MPKI: 0

L1D TOTAL     ACCESS:          13589267  HIT:   13161230  MISS:     428037  HIT %:    96.8502  MISS %:    3.14982   MPKI: 12.5893  USED:      72471  UNUSED:     355566
L1D LOAD      ACCESS:           5745035  HIT:    5316998  MISS:     428037  HIT %:    92.5494  MISS %:    7.45056   MPKI: 12.5893  USED:      72471  UNUSED:     355566
L1D RFO       ACCESS:           7844232  HIT:    7844232  MISS:          0  HIT %:        100  MISS %:          0   MPKI: 0
L1D PTL1 TRANSLATION ACCESS:          0  HIT:          0  MISS:          0  HIT %:       -nan  MISS %:       -nan   MPKI: 0
L1D PTL2 TRANSLATION ACCESS:          0  HIT:          0  MISS:          0  HIT %:       -nan  MISS %:       -nan   MPKI: 0
L1D PTL3 TRANSLATION ACCESS:          0  HIT:          0  MISS:          0  HIT %:       -nan  MISS %:       -nan   MPKI: 0
L1D PTL4 TRANSLATION ACCESS:          0  HIT:          0  MISS:          0  HIT %:       -nan  MISS %:       -nan   MPKI: 0
L1D PTL5 TRANSLATION ACCESS:          0  HIT:          0  MISS:          0  HIT %:       -nan  MISS %:       -nan   MPKI: 0
L1D TOTAL EVICTIONS:             428037  TRANSLATION EVICTIONS:          0  TRANSLATION EVICTING TRANSALTION:          0  TRANSLATION EVICTING LOAD:          0  LOAD EVICTING TRANSALTION:          0  LOAD EVICTING LOAD:      428037
L1D AVERAGE MISS LATENCY:       28.6507 cycles  AVERAGE LOAD MISS LATENCY:       28.6507 cycles  AVERAGE LOAD TRANSLATION MISS LATENCY:          -nan cycles
L1D RQ ACCESS:     8589536	FORWARD:           0	MERGED:      2039005	TO_CACHE:    5745037
L1D WQ ACCESS:     7846164	FORWARD:      805494	MERGED:         1938	TO_CACHE:    7844226

L1I TOTAL     ACCESS:           5018418  HIT:    5018418  MISS:          0  HIT %:        100  MISS %:          0   MPKI: 0
L1I LOAD      ACCESS:           5018418  HIT:    5018418  MISS:          0  HIT %:        100  MISS %:          0   MPKI: 0
L1I AVERAGE MISS LATENCY:          -nan cycles
L1I RQ ACCESS:     7932483	FORWARD:           0	MERGED:      2914065	TO_CACHE:    5018418

L2C TOTAL     ACCESS:            432456  HIT:     321530  MISS:     110926  HIT %:    74.3498  MISS %:    25.6502   MPKI: 3.26253  USED:      57372  UNUSED:      53554
L2C LOAD      ACCESS:            428037  HIT:     317111  MISS:     110926  HIT %:     74.085  MISS %:     25.915   MPKI: 3.26253  USED:      57372  UNUSED:      53554
L2C WRITEBACK ACCESS:              4419  HIT:       4419  MISS:          0  HIT %:        100  MISS %:          0   MPKI: 0
L2C PTL1 TRANSLATION ACCESS:          0  HIT:          0  MISS:          0  HIT %:       -nan  MISS %:       -nan   MPKI: 0
L2C PTL2 TRANSLATION ACCESS:          0  HIT:          0  MISS:          0  HIT %:       -nan  MISS %:       -nan   MPKI: 0
L2C PTL3 TRANSLATION ACCESS:          0  HIT:          0  MISS:          0  HIT %:       -nan  MISS %:       -nan   MPKI: 0
L2C PTL4 TRANSLATION ACCESS:          0  HIT:          0  MISS:          0  HIT %:       -nan  MISS %:       -nan   MPKI: 0
L2C PTL5 TRANSLATION ACCESS:          0  HIT:          0  MISS:          0  HIT %:       -nan  MISS %:       -nan   MPKI: 0
L2C TOTAL EVICTIONS:             110926  TRANSLATION EVICTIONS:          0  TRANSLATION EVICTING TRANSALTION:          0  TRANSLATION EVICTING LOAD:          0  LOAD EVICTING TRANSALTION:          0  LOAD EVICTING LOAD:      110926
L2C AVERAGE MISS LATENCY:       52.6748 cycles  AVERAGE LOAD MISS LATENCY:       52.6748 cycles  AVERAGE LOAD TRANSLATION MISS LATENCY:          -nan cycles
L2C RQ ACCESS:      428039	FORWARD:           0	MERGED:            0	TO_CACHE:     428039
L2C WQ ACCESS:        4419	FORWARD:           0	MERGED:            0	TO_CACHE:       4419

LLC TOTAL     ACCESS:            115361  HIT:      86620  MISS:      28741  HIT %:     75.086  MISS %:     24.914   MPKI: 0.845324  USED:          0  UNUSED:          0
LLC LOAD      ACCESS:            110926  HIT:      82217  MISS:      28709  HIT %:    74.1188  MISS %:    25.8812   MPKI: 0.844382  USED:          0  UNUSED:          0
LLC WRITEBACK ACCESS:              4435  HIT:       4403  MISS:         32  HIT %:    99.2785  MISS %:   0.721533   MPKI: 0.000941176
LLC PTL1 TRANSLATION ACCESS:          0  HIT:          0  MISS:          0  HIT %:       -nan  MISS %:       -nan   MPKI: 0
LLC PTL2 TRANSLATION ACCESS:          0  HIT:          0  MISS:          0  HIT %:       -nan  MISS %:       -nan   MPKI: 0
LLC PTL3 TRANSLATION ACCESS:          0  HIT:          0  MISS:          0  HIT %:       -nan  MISS %:       -nan   MPKI: 0
LLC PTL4 TRANSLATION ACCESS:          0  HIT:          0  MISS:          0  HIT %:       -nan  MISS %:       -nan   MPKI: 0
LLC PTL5 TRANSLATION ACCESS:          0  HIT:          0  MISS:          0  HIT %:       -nan  MISS %:       -nan   MPKI: 0
LLC TOTAL EVICTIONS:                  0  TRANSLATION EVICTIONS:          0  TRANSLATION EVICTING TRANSALTION:          0  TRANSLATION EVICTING LOAD:          0  LOAD EVICTING TRANSALTION:          0  LOAD EVICTING LOAD:           0
LLC AVERAGE MISS LATENCY:       87.5137 cycles  AVERAGE LOAD MISS LATENCY:       87.6112 cycles  AVERAGE LOAD TRANSLATION MISS LATENCY:          -nan cycles
LLC RQ ACCESS:      110928	FORWARD:           0	MERGED:            0	TO_CACHE:     110928
LLC WQ ACCESS:        4435	FORWARD:           0	MERGED:            0	TO_CACHE:       4435


RAW hits: 5830277
Loads Generated: 14419814
Loads sent to L1D: 8589536
Stores Generated: 7846161
Stores sent to L1D: 7846164
Major fault: 0 Minor fault: 1613
Allocated PAGES: 1613
IRREG DATA L1D ACCESS: 777648
L2C ACCESSES: 712046
L2C MISSES: 134767
Total LLC accesses: 223828
Total Irreg accesses: 134776

DRAM Statistics
 CHANNEL 0
 RQ ROW_BUFFER_HIT:      23653  ROW_BUFFER_MISS:       5470
 DBUS_CONGESTED:          0
 WQ ROW_BUFFER_HIT:          0  ROW_BUFFER_MISS:         65  FULL:          0

 AVG_CONGESTED_CYCLE: -

CPU 0 Branch Prediction Accuracy: 98.3165% MPKI: 2.06494 Average ROB Occupancy at Mispredict: 17.3444
Branch types
NOT_BRANCH: 29829226 87.733%
BRANCH_DIRECT_JUMP: 0 0%
BRANCH_INDIRECT: 494726 1.45508%
BRANCH_CONDITIONAL: 0 0%
BRANCH_DIRECT_CALL: 70708 0.207965%
BRANCH_INDIRECT_CALL: 1413704 4.15795%
BRANCH_RETURN: 1484414 4.36592%
BRANCH_OTHER: 706853 2.07898%

DRAM PAGES: 1048576
Allocated PAGES: 1613
