
*** ChampSim Multicore Out-of-Order Simulator ***

Warmup Instructions: 34000000
Simulation Instructions: 34000000
Number of CPUs: 1
LLC sets: 2048
LLC ways: 16
Off-chip DRAM Size: 4096 MB Channels: 1 Width: 64-bit Data Rate: 6400 MT/s
CPU 0 runs ./tracer/pull_u17_k3.xz
.xz
BTB has LRU replacement policy
ITLB has LRU replacement policy
DTLB has LRU replacement policy
STLB has LRU replacement policy
L1I has LRU replacement policy
L1D has LRU replacement policy
L2C has LRU replacement policy
LLC has LRU replacement policy
Heartbeat CPU 0 instructions: 1000000 cycles: 350520 heartbeat IPC: 2.8529 cumulative IPC: 2.8529 (Simulation time: 0 hr 0 min 2 sec) 
Heartbeat CPU 0 instructions: 2000003 cycles: 701020 heartbeat IPC: 2.85308 cumulative IPC: 2.85299 (Simulation time: 0 hr 0 min 5 sec) 
Heartbeat CPU 0 instructions: 3000002 cycles: 1051514 heartbeat IPC: 2.85311 cumulative IPC: 2.85303 (Simulation time: 0 hr 0 min 8 sec) 
PIN_registerGraphs(random_u17_k3.sg,1)
Graphh Number of Nodes: 131072
Heartbeat CPU 0 instructions: 4000000 cycles: 1394730 heartbeat IPC: 2.91361 cumulative IPC: 2.86794 (Simulation time: 0 hr 0 min 10 sec) 
Heartbeat CPU 0 instructions: 5000000 cycles: 1727996 heartbeat IPC: 3.00061 cumulative IPC: 2.89353 (Simulation time: 0 hr 0 min 11 sec) 
PIN_updateRegBaseBound( 93967752388816, 93967752913104)
updateCurrDst(24)
updateCurrDst(32)
updateCurrDst(122)
updateCurrDst(182)
updateCurrDst(186)
updateCurrDst(237)
updateCurrDst(281)
updateCurrDst(376)
updateCurrDst(396)
updateCurrDst(430)
updateCurrDst(460)
updateCurrDst(563)
Heartbeat CPU 0 instructions: 6000001 cycles: 2056684 heartbeat IPC: 3.0424 cumulative IPC: 2.91732 (Simulation time: 0 hr 0 min 13 sec) 
updateCurrDst(707)
updateCurrDst(754)
updateCurrDst(804)
updateCurrDst(837)
updateCurrDst(938)
updateCurrDst(1028)
updateCurrDst(1132)
updateCurrDst(1233)
updateCurrDst(1341)
updateCurrDst(1342)
updateCurrDst(1348)
updateCurrDst(1375)
updateCurrDst(1471)
updateCurrDst(1581)
updateCurrDst(1775)
updateCurrDst(1931)
updateCurrDst(1946)
updateCurrDst(2004)
updateCurrDst(2054)
updateCurrDst(2126)
updateCurrDst(2257)
updateCurrDst(2324)
updateCurrDst(2348)
updateCurrDst(2394)
updateCurrDst(2538)
updateCurrDst(2629)
updateCurrDst(2638)
updateCurrDst(2681)
updateCurrDst(2779)
Heartbeat CPU 0 instructions: 7000002 cycles: 2376061 heartbeat IPC: 3.1311 cumulative IPC: 2.94605 (Simulation time: 0 hr 0 min 16 sec) 
updateCurrDst(2812)
updateCurrDst(2855)
updateCurrDst(3068)
updateCurrDst(3074)
updateCurrDst(3086)
updateCurrDst(3246)
updateCurrDst(3342)
updateCurrDst(3458)
updateCurrDst(3480)
updateCurrDst(3680)
updateCurrDst(3876)
updateCurrDst(3906)
updateCurrDst(3930)
updateCurrDst(3976)
updateCurrDst(4121)
updateCurrDst(4245)
updateCurrDst(4257)
updateCurrDst(4315)
updateCurrDst(4465)
updateCurrDst(4479)
updateCurrDst(4841)
Heartbeat CPU 0 instructions: 8000000 cycles: 2695067 heartbeat IPC: 3.13473 cumulative IPC: 2.96839 (Simulation time: 0 hr 0 min 19 sec) 
updateCurrDst(4879)
updateCurrDst(4974)
updateCurrDst(5015)
updateCurrDst(5068)
updateCurrDst(5141)
updateCurrDst(5175)
updateCurrDst(5289)
updateCurrDst(5311)
updateCurrDst(5372)
updateCurrDst(5391)
updateCurrDst(5482)
updateCurrDst(5486)
updateCurrDst(5517)
updateCurrDst(5618)
updateCurrDst(5713)
updateCurrDst(5730)
updateCurrDst(5809)
updateCurrDst(5882)
updateCurrDst(6017)
updateCurrDst(6186)
updateCurrDst(6202)
updateCurrDst(6204)
updateCurrDst(6534)
updateCurrDst(6555)
updateCurrDst(6689)
Heartbeat CPU 0 instructions: 9000001 cycles: 3014553 heartbeat IPC: 3.13003 cumulative IPC: 2.98552 (Simulation time: 0 hr 0 min 22 sec) 
updateCurrDst(7386)
updateCurrDst(7552)
updateCurrDst(7646)
updateCurrDst(7798)
updateCurrDst(7825)
updateCurrDst(7881)
updateCurrDst(7922)
updateCurrDst(7928)
updateCurrDst(8008)
updateCurrDst(8481)
updateCurrDst(8754)
updateCurrDst(8803)
updateCurrDst(8871)
Heartbeat CPU 0 instructions: 10000001 cycles: 3333892 heartbeat IPC: 3.13147 cumulative IPC: 2.9995 (Simulation time: 0 hr 0 min 25 sec) 
updateCurrDst(9095)
updateCurrDst(9115)
updateCurrDst(9126)
updateCurrDst(9287)
updateCurrDst(9403)
updateCurrDst(9488)
updateCurrDst(9591)
updateCurrDst(9773)
updateCurrDst(9932)
updateCurrDst(9953)
updateCurrDst(9982)
updateCurrDst(10052)
updateCurrDst(10130)
updateCurrDst(10261)
updateCurrDst(10309)
updateCurrDst(10483)
updateCurrDst(10608)
updateCurrDst(10684)
updateCurrDst(10937)
updateCurrDst(11049)
updateCurrDst(11081)
Heartbeat CPU 0 instructions: 11000000 cycles: 3653073 heartbeat IPC: 3.13302 cumulative IPC: 3.01116 (Simulation time: 0 hr 0 min 28 sec) 
updateCurrDst(11110)
updateCurrDst(11428)
updateCurrDst(11588)
updateCurrDst(11605)
updateCurrDst(11676)
updateCurrDst(11689)
updateCurrDst(11958)
updateCurrDst(11981)
updateCurrDst(12042)
updateCurrDst(12143)
updateCurrDst(12252)
updateCurrDst(12530)
updateCurrDst(12612)
updateCurrDst(12676)
updateCurrDst(12697)
updateCurrDst(12740)
updateCurrDst(12815)
updateCurrDst(12824)
updateCurrDst(13049)
updateCurrDst(13079)
updateCurrDst(13102)
updateCurrDst(13155)
updateCurrDst(13163)
Heartbeat CPU 0 instructions: 12000002 cycles: 3972363 heartbeat IPC: 3.13196 cumulative IPC: 3.02087 (Simulation time: 0 hr 0 min 31 sec) 
updateCurrDst(13577)
updateCurrDst(13609)
updateCurrDst(13831)
updateCurrDst(13878)
updateCurrDst(13921)
updateCurrDst(14007)
updateCurrDst(14022)
updateCurrDst(14303)
updateCurrDst(14360)
updateCurrDst(14505)
updateCurrDst(14553)
updateCurrDst(14758)
updateCurrDst(14785)
updateCurrDst(14803)
updateCurrDst(14861)
updateCurrDst(14995)
Heartbeat CPU 0 instructions: 13000001 cycles: 4291531 heartbeat IPC: 3.13314 cumulative IPC: 3.02922 (Simulation time: 0 hr 0 min 34 sec) 
updateCurrDst(15253)
updateCurrDst(15308)
updateCurrDst(15378)
updateCurrDst(15533)
updateCurrDst(15618)
updateCurrDst(15793)
updateCurrDst(15842)
updateCurrDst(15880)
updateCurrDst(15990)
updateCurrDst(16017)
updateCurrDst(16233)
updateCurrDst(16322)
updateCurrDst(16324)
updateCurrDst(16350)
updateCurrDst(16390)
updateCurrDst(16460)
updateCurrDst(16470)
updateCurrDst(16553)
updateCurrDst(16602)
updateCurrDst(16798)
updateCurrDst(16938)
updateCurrDst(16959)
updateCurrDst(16986)
updateCurrDst(17095)
updateCurrDst(17220)
Heartbeat CPU 0 instructions: 14000003 cycles: 4610605 heartbeat IPC: 3.13408 cumulative IPC: 3.03648 (Simulation time: 0 hr 0 min 37 sec) 
updateCurrDst(17324)
updateCurrDst(17399)
updateCurrDst(17537)
updateCurrDst(17597)
updateCurrDst(17709)
updateCurrDst(17723)
updateCurrDst(17832)
updateCurrDst(17982)
updateCurrDst(17996)
updateCurrDst(18033)
updateCurrDst(18311)
updateCurrDst(18319)
updateCurrDst(18513)
updateCurrDst(18589)
updateCurrDst(18606)
updateCurrDst(18661)
updateCurrDst(18707)
updateCurrDst(18795)
updateCurrDst(18990)
updateCurrDst(19107)
updateCurrDst(19255)
updateCurrDst(19268)
Heartbeat CPU 0 instructions: 15000002 cycles: 4930073 heartbeat IPC: 3.1302 cumulative IPC: 3.04255 (Simulation time: 0 hr 0 min 40 sec) 
updateCurrDst(19505)
updateCurrDst(19514)
updateCurrDst(19550)
updateCurrDst(19675)
updateCurrDst(19839)
updateCurrDst(19941)
updateCurrDst(19950)
updateCurrDst(20290)
updateCurrDst(20298)
updateCurrDst(20310)
updateCurrDst(20339)
updateCurrDst(20444)
updateCurrDst(20449)
updateCurrDst(20535)
updateCurrDst(20559)
updateCurrDst(20595)
updateCurrDst(20659)
updateCurrDst(20716)
updateCurrDst(20745)
updateCurrDst(20773)
updateCurrDst(20799)
updateCurrDst(20947)
updateCurrDst(20954)
updateCurrDst(21028)
updateCurrDst(21112)
updateCurrDst(21134)
updateCurrDst(21167)
updateCurrDst(21236)
updateCurrDst(21435)
updateCurrDst(21462)
Heartbeat CPU 0 instructions: 16000001 cycles: 5249360 heartbeat IPC: 3.13198 cumulative IPC: 3.04799 (Simulation time: 0 hr 0 min 43 sec) 
updateCurrDst(21478)
updateCurrDst(21484)
updateCurrDst(21568)
updateCurrDst(21791)
updateCurrDst(21856)
updateCurrDst(21891)
updateCurrDst(21960)
updateCurrDst(22089)
updateCurrDst(22145)
updateCurrDst(22149)
updateCurrDst(22293)
updateCurrDst(22302)
updateCurrDst(22355)
updateCurrDst(22434)
updateCurrDst(22562)
updateCurrDst(22677)
updateCurrDst(22687)
updateCurrDst(22689)
updateCurrDst(23088)
updateCurrDst(23112)
updateCurrDst(23392)
updateCurrDst(23430)
updateCurrDst(23515)
Heartbeat CPU 0 instructions: 17000000 cycles: 5568782 heartbeat IPC: 3.13065 cumulative IPC: 3.05273 (Simulation time: 0 hr 0 min 46 sec) 
updateCurrDst(23575)
updateCurrDst(23613)
updateCurrDst(23826)
updateCurrDst(23941)
updateCurrDst(24114)
updateCurrDst(24130)
updateCurrDst(24168)
updateCurrDst(24277)
updateCurrDst(24345)
updateCurrDst(24403)
updateCurrDst(24454)
updateCurrDst(24623)
updateCurrDst(24626)
updateCurrDst(24702)
updateCurrDst(24755)
updateCurrDst(24792)
updateCurrDst(24867)
updateCurrDst(24924)
updateCurrDst(25026)
updateCurrDst(25029)
updateCurrDst(25125)
updateCurrDst(25158)
updateCurrDst(25166)
updateCurrDst(25199)
updateCurrDst(25346)
Heartbeat CPU 0 instructions: 18000001 cycles: 5887790 heartbeat IPC: 3.13472 cumulative IPC: 3.05717 (Simulation time: 0 hr 0 min 49 sec) 
updateCurrDst(25918)
updateCurrDst(26407)
updateCurrDst(26448)
updateCurrDst(26755)
updateCurrDst(26801)
updateCurrDst(26813)
updateCurrDst(26849)
updateCurrDst(26911)
updateCurrDst(26947)
updateCurrDst(27031)
updateCurrDst(27145)
updateCurrDst(27568)
updateCurrDst(27659)
Heartbeat CPU 0 instructions: 19000001 cycles: 6207102 heartbeat IPC: 3.13173 cumulative IPC: 3.06101 (Simulation time: 0 hr 0 min 52 sec) 
updateCurrDst(27966)
updateCurrDst(28190)
updateCurrDst(28323)
updateCurrDst(28363)
updateCurrDst(28398)
updateCurrDst(28551)
updateCurrDst(28593)
updateCurrDst(28826)
updateCurrDst(28915)
updateCurrDst(28961)
updateCurrDst(28990)
updateCurrDst(29141)
updateCurrDst(29363)
updateCurrDst(29385)
updateCurrDst(29507)
Heartbeat CPU 0 instructions: 20000002 cycles: 6526380 heartbeat IPC: 3.13207 cumulative IPC: 3.06449 (Simulation time: 0 hr 0 min 55 sec) 
updateCurrDst(29785)
updateCurrDst(29804)
updateCurrDst(29836)
updateCurrDst(29918)
updateCurrDst(29921)
updateCurrDst(30288)
updateCurrDst(30292)
updateCurrDst(31191)
updateCurrDst(31450)
updateCurrDst(31522)
updateCurrDst(31597)
Heartbeat CPU 0 instructions: 21000001 cycles: 6845432 heartbeat IPC: 3.13428 cumulative IPC: 3.06774 (Simulation time: 0 hr 0 min 58 sec) 
updateCurrDst(31839)
updateCurrDst(31953)
updateCurrDst(32108)
updateCurrDst(32262)
updateCurrDst(32383)
updateCurrDst(32607)
updateCurrDst(32704)
updateCurrDst(32807)
updateCurrDst(32812)
updateCurrDst(33025)
updateCurrDst(33062)
updateCurrDst(33102)
updateCurrDst(33161)
updateCurrDst(33237)
updateCurrDst(33358)
updateCurrDst(33408)
updateCurrDst(33787)
Heartbeat CPU 0 instructions: 22000000 cycles: 7164906 heartbeat IPC: 3.13014 cumulative IPC: 3.07052 (Simulation time: 0 hr 1 min 1 sec) 
updateCurrDst(33966)
updateCurrDst(34061)
updateCurrDst(34104)
updateCurrDst(34257)
updateCurrDst(34258)
updateCurrDst(34377)
updateCurrDst(34491)
updateCurrDst(34525)
updateCurrDst(34546)
updateCurrDst(34770)
updateCurrDst(34932)
updateCurrDst(34959)
updateCurrDst(34972)
updateCurrDst(35267)
updateCurrDst(35278)
updateCurrDst(35446)
updateCurrDst(35454)
updateCurrDst(35491)
updateCurrDst(35494)
updateCurrDst(35513)
updateCurrDst(35540)
updateCurrDst(35582)
updateCurrDst(35756)
Heartbeat CPU 0 instructions: 23000000 cycles: 7484043 heartbeat IPC: 3.13345 cumulative IPC: 3.07321 (Simulation time: 0 hr 1 min 4 sec) 
updateCurrDst(36057)
updateCurrDst(36238)
updateCurrDst(36296)
updateCurrDst(36364)
updateCurrDst(36384)
updateCurrDst(36475)
updateCurrDst(36738)
updateCurrDst(36905)
updateCurrDst(37169)
updateCurrDst(37221)
updateCurrDst(37248)
updateCurrDst(37365)
updateCurrDst(37597)
updateCurrDst(37706)
updateCurrDst(37836)
updateCurrDst(37850)
updateCurrDst(38036)
Heartbeat CPU 0 instructions: 24000000 cycles: 7803307 heartbeat IPC: 3.1322 cumulative IPC: 3.07562 (Simulation time: 0 hr 1 min 7 sec) 
updateCurrDst(38072)
updateCurrDst(38154)
updateCurrDst(38190)
updateCurrDst(38448)
updateCurrDst(38490)
updateCurrDst(38729)
updateCurrDst(38735)
updateCurrDst(38872)
updateCurrDst(39020)
updateCurrDst(39236)
updateCurrDst(39237)
updateCurrDst(39494)
updateCurrDst(39671)
updateCurrDst(39908)
updateCurrDst(39992)
updateCurrDst(40038)
updateCurrDst(40061)
Heartbeat CPU 0 instructions: 25000002 cycles: 8122534 heartbeat IPC: 3.13257 cumulative IPC: 3.07786 (Simulation time: 0 hr 1 min 10 sec) 
updateCurrDst(40141)
updateCurrDst(40236)
updateCurrDst(40304)
updateCurrDst(40482)
updateCurrDst(40533)
updateCurrDst(40595)
updateCurrDst(40609)
updateCurrDst(40678)
updateCurrDst(40915)
updateCurrDst(40937)
updateCurrDst(41029)
updateCurrDst(41098)
updateCurrDst(41218)
updateCurrDst(41455)
updateCurrDst(41466)
updateCurrDst(41492)
updateCurrDst(41559)
updateCurrDst(41630)
updateCurrDst(41655)
updateCurrDst(41675)
updateCurrDst(41696)
updateCurrDst(41778)
updateCurrDst(41824)
Heartbeat CPU 0 instructions: 26000000 cycles: 8442205 heartbeat IPC: 3.12821 cumulative IPC: 3.07976 (Simulation time: 0 hr 1 min 13 sec) 
updateCurrDst(42221)
updateCurrDst(42458)
updateCurrDst(42478)
updateCurrDst(42636)
updateCurrDst(43105)
updateCurrDst(43182)
updateCurrDst(43227)
updateCurrDst(43234)
updateCurrDst(43259)
updateCurrDst(43263)
updateCurrDst(43298)
updateCurrDst(43408)
updateCurrDst(43446)
updateCurrDst(43505)
updateCurrDst(43619)
updateCurrDst(43733)
updateCurrDst(43916)
Heartbeat CPU 0 instructions: 27000000 cycles: 8761812 heartbeat IPC: 3.12884 cumulative IPC: 3.08155 (Simulation time: 0 hr 1 min 16 sec) 
updateCurrDst(44385)
updateCurrDst(44396)
updateCurrDst(44400)
updateCurrDst(44466)
updateCurrDst(44498)
updateCurrDst(44555)
updateCurrDst(44606)
updateCurrDst(44634)
updateCurrDst(44639)
updateCurrDst(44683)
updateCurrDst(44704)
updateCurrDst(44774)
updateCurrDst(44846)
updateCurrDst(44903)
updateCurrDst(44971)
updateCurrDst(45004)
updateCurrDst(45228)
updateCurrDst(45242)
updateCurrDst(45483)
updateCurrDst(45493)
updateCurrDst(45966)
updateCurrDst(46047)
updateCurrDst(46210)
Heartbeat CPU 0 instructions: 28000000 cycles: 9081305 heartbeat IPC: 3.12996 cumulative IPC: 3.08326 (Simulation time: 0 hr 1 min 19 sec) 
updateCurrDst(46646)
updateCurrDst(46741)
updateCurrDst(46754)
updateCurrDst(46881)
updateCurrDst(46935)
updateCurrDst(46942)
updateCurrDst(47097)
updateCurrDst(47103)
updateCurrDst(47119)
updateCurrDst(47158)
updateCurrDst(47258)
updateCurrDst(47297)
updateCurrDst(47424)
updateCurrDst(47664)
updateCurrDst(47839)
updateCurrDst(47898)
updateCurrDst(48123)
updateCurrDst(48313)
updateCurrDst(48346)
Heartbeat CPU 0 instructions: 29000000 cycles: 9400620 heartbeat IPC: 3.1317 cumulative IPC: 3.0849 (Simulation time: 0 hr 1 min 22 sec) 
updateCurrDst(48602)
updateCurrDst(48650)
updateCurrDst(48664)
updateCurrDst(48686)
updateCurrDst(48720)
updateCurrDst(49155)
updateCurrDst(49182)
updateCurrDst(49243)
updateCurrDst(49274)
updateCurrDst(49339)
updateCurrDst(49353)
updateCurrDst(49453)
updateCurrDst(49459)
updateCurrDst(49542)
updateCurrDst(49614)
updateCurrDst(49676)
updateCurrDst(49773)
updateCurrDst(49828)
updateCurrDst(49844)
updateCurrDst(49957)
updateCurrDst(49974)
updateCurrDst(50005)
updateCurrDst(50132)
updateCurrDst(50359)
Heartbeat CPU 0 instructions: 30000001 cycles: 9720390 heartbeat IPC: 3.12725 cumulative IPC: 3.0863 (Simulation time: 0 hr 1 min 25 sec) 
updateCurrDst(50602)
updateCurrDst(50862)
updateCurrDst(50927)
updateCurrDst(50945)
updateCurrDst(50955)
updateCurrDst(51088)
updateCurrDst(51407)
updateCurrDst(51481)
updateCurrDst(51482)
updateCurrDst(51503)
updateCurrDst(51516)
updateCurrDst(51688)
updateCurrDst(52194)
updateCurrDst(52295)
updateCurrDst(52334)
updateCurrDst(52401)
updateCurrDst(52440)
updateCurrDst(52474)
updateCurrDst(52519)
updateCurrDst(52534)
updateCurrDst(52583)
updateCurrDst(52588)
Heartbeat CPU 0 instructions: 31000001 cycles: 10039946 heartbeat IPC: 3.12934 cumulative IPC: 3.08767 (Simulation time: 0 hr 1 min 28 sec) 
updateCurrDst(52785)
updateCurrDst(52786)
updateCurrDst(52819)
updateCurrDst(52902)
updateCurrDst(52992)
updateCurrDst(53008)
updateCurrDst(53084)
updateCurrDst(53159)
updateCurrDst(53181)
updateCurrDst(53218)
updateCurrDst(53468)
updateCurrDst(53572)
updateCurrDst(53603)
updateCurrDst(53740)
updateCurrDst(53832)
updateCurrDst(53908)
updateCurrDst(53967)
updateCurrDst(54079)
updateCurrDst(54086)
updateCurrDst(54171)
updateCurrDst(54180)
updateCurrDst(54181)
updateCurrDst(54421)
updateCurrDst(54633)
updateCurrDst(54657)
updateCurrDst(54677)
Heartbeat CPU 0 instructions: 32000002 cycles: 10359362 heartbeat IPC: 3.13072 cumulative IPC: 3.08899 (Simulation time: 0 hr 1 min 31 sec) 
updateCurrDst(55193)
updateCurrDst(55362)
updateCurrDst(55419)
updateCurrDst(55508)
updateCurrDst(55523)
updateCurrDst(55630)
updateCurrDst(55698)
updateCurrDst(55727)
updateCurrDst(55755)
updateCurrDst(56018)
updateCurrDst(56089)
updateCurrDst(56140)
updateCurrDst(56163)
updateCurrDst(56217)
updateCurrDst(56236)
updateCurrDst(56530)
updateCurrDst(56559)
updateCurrDst(56565)
updateCurrDst(56593)
updateCurrDst(56650)
updateCurrDst(56652)
updateCurrDst(56764)
Heartbeat CPU 0 instructions: 33000000 cycles: 10678934 heartbeat IPC: 3.12918 cumulative IPC: 3.0902 (Simulation time: 0 hr 1 min 34 sec) 
updateCurrDst(57046)
updateCurrDst(57080)
updateCurrDst(57338)
updateCurrDst(57357)
updateCurrDst(57385)
updateCurrDst(57400)
updateCurrDst(57418)
updateCurrDst(57610)
updateCurrDst(57660)
updateCurrDst(57661)
updateCurrDst(57924)
updateCurrDst(57950)
updateCurrDst(58213)
updateCurrDst(58335)
updateCurrDst(58364)
updateCurrDst(58485)
updateCurrDst(58547)
updateCurrDst(58550)
updateCurrDst(58589)
updateCurrDst(58661)
updateCurrDst(58710)
updateCurrDst(58849)
updateCurrDst(58888)
Heartbeat CPU 0 instructions: 34000002 cycles: 10998432 heartbeat IPC: 3.12992 cumulative IPC: 3.09135 (Simulation time: 0 hr 1 min 37 sec) 

Warmup complete CPU 0 instructions: 34000002 cycles: 10998432 (Simulation time: 0 hr 1 min 37 sec) 

updateCurrDst(58971)
updateCurrDst(59089)
updateCurrDst(59220)
updateCurrDst(59240)
updateCurrDst(59243)
updateCurrDst(59374)
updateCurrDst(59385)
updateCurrDst(59488)
updateCurrDst(59537)
updateCurrDst(59568)
updateCurrDst(59671)
updateCurrDst(59728)
updateCurrDst(59810)
updateCurrDst(59818)
updateCurrDst(59929)
updateCurrDst(60057)
updateCurrDst(60151)
updateCurrDst(60184)
updateCurrDst(60455)
updateCurrDst(60751)
updateCurrDst(60822)
updateCurrDst(60854)
Heartbeat CPU 0 instructions: 35000001 cycles: 14060604 heartbeat IPC: 0.326565 cumulative IPC: 0.326565 (Simulation time: 0 hr 1 min 41 sec) 
updateCurrDst(61067)
updateCurrDst(61137)
updateCurrDst(61430)
updateCurrDst(61524)
updateCurrDst(61584)
updateCurrDst(61639)
updateCurrDst(62036)
updateCurrDst(62189)
updateCurrDst(62267)
updateCurrDst(62300)
updateCurrDst(62349)
updateCurrDst(62370)
updateCurrDst(62392)
updateCurrDst(62410)
updateCurrDst(62647)
updateCurrDst(62769)
updateCurrDst(62808)
updateCurrDst(62824)
Heartbeat CPU 0 instructions: 36000002 cycles: 17121900 heartbeat IPC: 0.326659 cumulative IPC: 0.326612 (Simulation time: 0 hr 1 min 44 sec) 
updateCurrDst(63057)
updateCurrDst(63099)
updateCurrDst(63170)
updateCurrDst(63375)
updateCurrDst(63447)
updateCurrDst(63459)
updateCurrDst(63467)
updateCurrDst(63584)
updateCurrDst(63719)
updateCurrDst(63836)
updateCurrDst(63950)
updateCurrDst(64370)
updateCurrDst(64374)
updateCurrDst(64377)
updateCurrDst(64535)
updateCurrDst(64537)
updateCurrDst(64550)
updateCurrDst(64711)
updateCurrDst(64726)
updateCurrDst(64759)
updateCurrDst(64858)
updateCurrDst(64935)
updateCurrDst(64984)
updateCurrDst(65042)
updateCurrDst(65116)
Heartbeat CPU 0 instructions: 37000000 cycles: 20184827 heartbeat IPC: 0.326484 cumulative IPC: 0.32657 (Simulation time: 0 hr 1 min 48 sec) 
updateCurrDst(65321)
updateCurrDst(65629)
updateCurrDst(65680)
updateCurrDst(65684)
updateCurrDst(65731)
updateCurrDst(65737)
updateCurrDst(65834)
updateCurrDst(65967)
updateCurrDst(66072)
updateCurrDst(66108)
updateCurrDst(66164)
updateCurrDst(66306)
updateCurrDst(66327)
updateCurrDst(66330)
updateCurrDst(66334)
updateCurrDst(66412)
updateCurrDst(66460)
updateCurrDst(66540)
updateCurrDst(66541)
updateCurrDst(66698)
updateCurrDst(66763)
updateCurrDst(66988)
Heartbeat CPU 0 instructions: 38000002 cycles: 23244201 heartbeat IPC: 0.326865 cumulative IPC: 0.326643 (Simulation time: 0 hr 1 min 51 sec) 
updateCurrDst(67373)
updateCurrDst(67532)
updateCurrDst(67547)
updateCurrDst(67860)
updateCurrDst(67961)
updateCurrDst(67995)
updateCurrDst(68079)
updateCurrDst(68128)
updateCurrDst(68151)
updateCurrDst(68349)
updateCurrDst(68384)
updateCurrDst(68576)
updateCurrDst(68601)
updateCurrDst(68693)
updateCurrDst(68745)
updateCurrDst(68781)
updateCurrDst(68846)
updateCurrDst(68857)
updateCurrDst(68872)
updateCurrDst(68877)
updateCurrDst(68897)
updateCurrDst(68927)
updateCurrDst(68930)
updateCurrDst(68955)
updateCurrDst(69097)
updateCurrDst(69108)
updateCurrDst(69196)
updateCurrDst(69218)
Heartbeat CPU 0 instructions: 39000002 cycles: 26309889 heartbeat IPC: 0.326191 cumulative IPC: 0.326553 (Simulation time: 0 hr 1 min 54 sec) 
updateCurrDst(69633)
updateCurrDst(69764)
updateCurrDst(69775)
updateCurrDst(69874)
updateCurrDst(69919)
updateCurrDst(69923)
updateCurrDst(70058)
updateCurrDst(70192)
updateCurrDst(70218)
updateCurrDst(70392)
updateCurrDst(70438)
updateCurrDst(70450)
updateCurrDst(70548)
updateCurrDst(70715)
updateCurrDst(70752)
updateCurrDst(70806)
updateCurrDst(71005)
updateCurrDst(71024)
updateCurrDst(71098)
updateCurrDst(71126)
updateCurrDst(71228)
updateCurrDst(71316)
updateCurrDst(71375)
Heartbeat CPU 0 instructions: 40000000 cycles: 29368180 heartbeat IPC: 0.326979 cumulative IPC: 0.326624 (Simulation time: 0 hr 1 min 58 sec) 
updateCurrDst(71484)
updateCurrDst(71571)
updateCurrDst(71692)
updateCurrDst(71722)
updateCurrDst(71742)
updateCurrDst(71756)
updateCurrDst(71769)
updateCurrDst(71883)
updateCurrDst(71913)
updateCurrDst(72218)
updateCurrDst(72362)
updateCurrDst(72468)
updateCurrDst(72517)
updateCurrDst(72543)
updateCurrDst(72600)
updateCurrDst(72678)
updateCurrDst(72898)
updateCurrDst(73032)
updateCurrDst(73311)
updateCurrDst(73334)
Heartbeat CPU 0 instructions: 41000000 cycles: 32435367 heartbeat IPC: 0.326032 cumulative IPC: 0.326539 (Simulation time: 0 hr 2 min 1 sec) 
updateCurrDst(73468)
updateCurrDst(73479)
updateCurrDst(73549)
updateCurrDst(73559)
updateCurrDst(73600)
updateCurrDst(73638)
updateCurrDst(73793)
updateCurrDst(73939)
updateCurrDst(73974)
updateCurrDst(74113)
updateCurrDst(74197)
updateCurrDst(74222)
updateCurrDst(74357)
updateCurrDst(74625)
updateCurrDst(74631)
updateCurrDst(74719)
updateCurrDst(74727)
updateCurrDst(74795)
updateCurrDst(74846)
updateCurrDst(75072)
updateCurrDst(75286)
updateCurrDst(75303)
updateCurrDst(75340)
updateCurrDst(75388)
updateCurrDst(75471)
Heartbeat CPU 0 instructions: 42000000 cycles: 35497489 heartbeat IPC: 0.326571 cumulative IPC: 0.326543 (Simulation time: 0 hr 2 min 4 sec) 
updateCurrDst(75578)
updateCurrDst(75625)
updateCurrDst(76219)
updateCurrDst(76349)
updateCurrDst(76447)
updateCurrDst(76572)
updateCurrDst(76591)
updateCurrDst(76630)
updateCurrDst(76670)
updateCurrDst(76920)
updateCurrDst(77024)
updateCurrDst(77042)
updateCurrDst(77359)
updateCurrDst(77449)
updateCurrDst(77455)
updateCurrDst(77480)
updateCurrDst(77561)
Heartbeat CPU 0 instructions: 43000000 cycles: 38556997 heartbeat IPC: 0.32685 cumulative IPC: 0.326577 (Simulation time: 0 hr 2 min 8 sec) 
updateCurrDst(77753)
updateCurrDst(77887)
updateCurrDst(77956)
updateCurrDst(78002)
updateCurrDst(78131)
updateCurrDst(78200)
updateCurrDst(78236)
updateCurrDst(78303)
updateCurrDst(78482)
updateCurrDst(78491)
updateCurrDst(78614)
updateCurrDst(78692)
updateCurrDst(78761)
updateCurrDst(78862)
updateCurrDst(79203)
updateCurrDst(79526)
Heartbeat CPU 0 instructions: 44000000 cycles: 41620994 heartbeat IPC: 0.326371 cumulative IPC: 0.326557 (Simulation time: 0 hr 2 min 11 sec) 
updateCurrDst(79852)
updateCurrDst(79940)
updateCurrDst(80004)
updateCurrDst(80007)
updateCurrDst(80019)
updateCurrDst(80058)
updateCurrDst(80114)
updateCurrDst(80196)
updateCurrDst(80225)
updateCurrDst(80293)
updateCurrDst(80310)
updateCurrDst(80382)
updateCurrDst(80388)
updateCurrDst(80402)
updateCurrDst(80521)
updateCurrDst(80637)
updateCurrDst(80836)
updateCurrDst(80839)
updateCurrDst(81326)
updateCurrDst(81420)
updateCurrDst(81495)
updateCurrDst(81569)
updateCurrDst(81617)
Heartbeat CPU 0 instructions: 45000000 cycles: 44680428 heartbeat IPC: 0.326858 cumulative IPC: 0.326584 (Simulation time: 0 hr 2 min 14 sec) 
updateCurrDst(81917)
updateCurrDst(81946)
updateCurrDst(82007)
updateCurrDst(82025)
updateCurrDst(82083)
updateCurrDst(82355)
updateCurrDst(82364)
updateCurrDst(82568)
updateCurrDst(82745)
updateCurrDst(82753)
updateCurrDst(82763)
updateCurrDst(82785)
updateCurrDst(82879)
updateCurrDst(83143)
updateCurrDst(83418)
updateCurrDst(83477)
updateCurrDst(83519)
updateCurrDst(83674)
updateCurrDst(83735)
Heartbeat CPU 0 instructions: 46000000 cycles: 47737374 heartbeat IPC: 0.327124 cumulative IPC: 0.326629 (Simulation time: 0 hr 2 min 18 sec) 
updateCurrDst(83915)
updateCurrDst(83931)
updateCurrDst(83993)
updateCurrDst(84271)
updateCurrDst(84291)
updateCurrDst(84296)
updateCurrDst(84359)
updateCurrDst(84439)
updateCurrDst(84672)
updateCurrDst(84745)
updateCurrDst(84853)
updateCurrDst(85249)
updateCurrDst(85310)
updateCurrDst(85423)
updateCurrDst(85764)
Heartbeat CPU 0 instructions: 47000001 cycles: 50797038 heartbeat IPC: 0.326834 cumulative IPC: 0.326645 (Simulation time: 0 hr 2 min 21 sec) 
updateCurrDst(86112)
updateCurrDst(86173)
updateCurrDst(86309)
updateCurrDst(86346)
updateCurrDst(86493)
updateCurrDst(86523)
updateCurrDst(86552)
updateCurrDst(86584)
updateCurrDst(86636)
updateCurrDst(86769)
updateCurrDst(86876)
updateCurrDst(86880)
updateCurrDst(87141)
updateCurrDst(87164)
updateCurrDst(87197)
updateCurrDst(87357)
updateCurrDst(87542)
updateCurrDst(87614)
updateCurrDst(87690)
updateCurrDst(87741)
updateCurrDst(87836)
updateCurrDst(87982)
Heartbeat CPU 0 instructions: 48000000 cycles: 53866096 heartbeat IPC: 0.325833 cumulative IPC: 0.326586 (Simulation time: 0 hr 2 min 24 sec) 
updateCurrDst(88058)
updateCurrDst(88118)
updateCurrDst(88145)
updateCurrDst(88168)
updateCurrDst(88228)
updateCurrDst(88512)
updateCurrDst(88626)
updateCurrDst(89137)
updateCurrDst(89149)
updateCurrDst(89214)
updateCurrDst(89277)
updateCurrDst(89541)
updateCurrDst(89568)
updateCurrDst(89602)
updateCurrDst(89765)
updateCurrDst(89845)
updateCurrDst(89991)
updateCurrDst(90009)
updateCurrDst(90064)
Heartbeat CPU 0 instructions: 49000001 cycles: 56921681 heartbeat IPC: 0.32727 cumulative IPC: 0.326632 (Simulation time: 0 hr 2 min 28 sec) 
updateCurrDst(90082)
updateCurrDst(90129)
updateCurrDst(90159)
updateCurrDst(90225)
updateCurrDst(90262)
updateCurrDst(90307)
updateCurrDst(90343)
updateCurrDst(90466)
updateCurrDst(90588)
updateCurrDst(90644)
updateCurrDst(90804)
updateCurrDst(90857)
updateCurrDst(90957)
updateCurrDst(90978)
updateCurrDst(91254)
updateCurrDst(91279)
updateCurrDst(91429)
updateCurrDst(91458)
updateCurrDst(91508)
updateCurrDst(91633)
updateCurrDst(91713)
updateCurrDst(91744)
updateCurrDst(91852)
updateCurrDst(91971)
updateCurrDst(92056)
updateCurrDst(92106)
Heartbeat CPU 0 instructions: 50000001 cycles: 59982258 heartbeat IPC: 0.326736 cumulative IPC: 0.326638 (Simulation time: 0 hr 2 min 32 sec) 
updateCurrDst(92215)
updateCurrDst(92267)
updateCurrDst(92269)
updateCurrDst(92519)
updateCurrDst(92551)
updateCurrDst(92596)
updateCurrDst(92693)
updateCurrDst(92754)
updateCurrDst(93072)
updateCurrDst(93216)
updateCurrDst(93441)
updateCurrDst(93547)
updateCurrDst(93744)
updateCurrDst(93817)
updateCurrDst(93960)
updateCurrDst(94074)
updateCurrDst(94215)
Heartbeat CPU 0 instructions: 51000001 cycles: 63052883 heartbeat IPC: 0.325667 cumulative IPC: 0.326581 (Simulation time: 0 hr 2 min 35 sec) 
updateCurrDst(94302)
updateCurrDst(94321)
updateCurrDst(94494)
updateCurrDst(94510)
updateCurrDst(94561)
updateCurrDst(94563)
updateCurrDst(94612)
updateCurrDst(94669)
updateCurrDst(94834)
updateCurrDst(94884)
updateCurrDst(94930)
updateCurrDst(95038)
updateCurrDst(95149)
updateCurrDst(95220)
updateCurrDst(95592)
updateCurrDst(96052)
updateCurrDst(96072)
updateCurrDst(96091)
updateCurrDst(96224)
updateCurrDst(96225)
updateCurrDst(96243)
updateCurrDst(96284)
Heartbeat CPU 0 instructions: 52000001 cycles: 66113041 heartbeat IPC: 0.32678 cumulative IPC: 0.326592 (Simulation time: 0 hr 2 min 38 sec) 
updateCurrDst(96326)
updateCurrDst(96347)
updateCurrDst(96495)
updateCurrDst(96602)
updateCurrDst(96805)
updateCurrDst(96853)
updateCurrDst(97119)
updateCurrDst(97139)
updateCurrDst(97151)
updateCurrDst(97256)
updateCurrDst(97279)
updateCurrDst(97351)
updateCurrDst(97492)
updateCurrDst(97593)
updateCurrDst(97613)
updateCurrDst(97719)
updateCurrDst(97745)
updateCurrDst(97793)
updateCurrDst(97832)
updateCurrDst(97984)
updateCurrDst(98002)
updateCurrDst(98059)
updateCurrDst(98127)
updateCurrDst(98313)
Heartbeat CPU 0 instructions: 53000001 cycles: 69177104 heartbeat IPC: 0.326364 cumulative IPC: 0.32658 (Simulation time: 0 hr 2 min 42 sec) 
updateCurrDst(98430)
updateCurrDst(98468)
updateCurrDst(98506)
updateCurrDst(98617)
updateCurrDst(98833)
updateCurrDst(99061)
updateCurrDst(99701)
updateCurrDst(99717)
updateCurrDst(99985)
updateCurrDst(100055)
updateCurrDst(100074)
updateCurrDst(100225)
updateCurrDst(100258)
updateCurrDst(100383)
Heartbeat CPU 0 instructions: 54000001 cycles: 72240617 heartbeat IPC: 0.326423 cumulative IPC: 0.326572 (Simulation time: 0 hr 2 min 46 sec) 
updateCurrDst(100507)
updateCurrDst(100613)
updateCurrDst(100749)
updateCurrDst(101114)
updateCurrDst(101185)
updateCurrDst(101293)
updateCurrDst(101303)
updateCurrDst(101304)
updateCurrDst(101320)
updateCurrDst(101392)
updateCurrDst(101442)
updateCurrDst(101551)
updateCurrDst(101622)
updateCurrDst(101679)
updateCurrDst(101832)
updateCurrDst(101863)
updateCurrDst(101915)
updateCurrDst(101938)
updateCurrDst(101976)
updateCurrDst(102064)
updateCurrDst(102114)
updateCurrDst(102135)
updateCurrDst(102165)
updateCurrDst(102193)
updateCurrDst(102517)
Heartbeat CPU 0 instructions: 55000000 cycles: 75297086 heartbeat IPC: 0.327175 cumulative IPC: 0.326601 (Simulation time: 0 hr 2 min 49 sec) 
updateCurrDst(102682)
updateCurrDst(102689)
updateCurrDst(102832)
updateCurrDst(102839)
updateCurrDst(103077)
updateCurrDst(103089)
updateCurrDst(103192)
updateCurrDst(103218)
updateCurrDst(103502)
updateCurrDst(103656)
updateCurrDst(103677)
updateCurrDst(103720)
updateCurrDst(103784)
updateCurrDst(103787)
updateCurrDst(103807)
updateCurrDst(103846)
updateCurrDst(103859)
updateCurrDst(103889)
updateCurrDst(104066)
updateCurrDst(104314)
updateCurrDst(104328)
updateCurrDst(104341)
updateCurrDst(104350)
updateCurrDst(104404)
updateCurrDst(104463)
updateCurrDst(104557)
updateCurrDst(104567)
updateCurrDst(104637)
Heartbeat CPU 0 instructions: 56000002 cycles: 78353461 heartbeat IPC: 0.327186 cumulative IPC: 0.326627 (Simulation time: 0 hr 2 min 54 sec) 
updateCurrDst(104766)
updateCurrDst(104782)
updateCurrDst(104832)
updateCurrDst(104928)
updateCurrDst(104979)
updateCurrDst(104993)
updateCurrDst(105033)
updateCurrDst(105195)
updateCurrDst(105284)
updateCurrDst(105315)
updateCurrDst(105637)
updateCurrDst(105697)
updateCurrDst(105700)
updateCurrDst(105758)
updateCurrDst(105777)
updateCurrDst(105810)
updateCurrDst(105824)
updateCurrDst(105884)
updateCurrDst(106024)
updateCurrDst(106150)
updateCurrDst(106275)
updateCurrDst(106318)
updateCurrDst(106397)
updateCurrDst(106507)
updateCurrDst(106642)
updateCurrDst(106643)
updateCurrDst(106646)
Heartbeat CPU 0 instructions: 57000000 cycles: 81418559 heartbeat IPC: 0.326253 cumulative IPC: 0.326611 (Simulation time: 0 hr 2 min 59 sec) 
updateCurrDst(106919)
updateCurrDst(106944)
updateCurrDst(107091)
updateCurrDst(107195)
updateCurrDst(107295)
updateCurrDst(107344)
updateCurrDst(107498)
updateCurrDst(107560)
updateCurrDst(107694)
updateCurrDst(107732)
updateCurrDst(107791)
updateCurrDst(107858)
updateCurrDst(108074)
updateCurrDst(108169)
updateCurrDst(108235)
updateCurrDst(108409)
updateCurrDst(108462)
updateCurrDst(108497)
updateCurrDst(108547)
updateCurrDst(108693)
updateCurrDst(108699)
updateCurrDst(108717)
Heartbeat CPU 0 instructions: 58000000 cycles: 84485920 heartbeat IPC: 0.326013 cumulative IPC: 0.326586 (Simulation time: 0 hr 3 min 3 sec) 
updateCurrDst(108895)
updateCurrDst(109059)
updateCurrDst(109237)
updateCurrDst(109268)
updateCurrDst(109333)
updateCurrDst(109428)
updateCurrDst(109660)
updateCurrDst(109690)
updateCurrDst(109786)
updateCurrDst(109968)
updateCurrDst(109975)
updateCurrDst(110162)
updateCurrDst(110237)
updateCurrDst(110298)
updateCurrDst(110392)
updateCurrDst(110396)
updateCurrDst(110547)
updateCurrDst(110836)
Heartbeat CPU 0 instructions: 59000002 cycles: 87548599 heartbeat IPC: 0.326512 cumulative IPC: 0.326583 (Simulation time: 0 hr 3 min 6 sec) 
updateCurrDst(111030)
updateCurrDst(111045)
updateCurrDst(111075)
updateCurrDst(111149)
updateCurrDst(111252)
updateCurrDst(111265)
updateCurrDst(111266)
updateCurrDst(111577)
updateCurrDst(111607)
updateCurrDst(111623)
updateCurrDst(111624)
updateCurrDst(111650)
updateCurrDst(111668)
updateCurrDst(111905)
updateCurrDst(111995)
updateCurrDst(112248)
updateCurrDst(112327)
updateCurrDst(112329)
Heartbeat CPU 0 instructions: 60000000 cycles: 90606001 heartbeat IPC: 0.327074 cumulative IPC: 0.326602 (Simulation time: 0 hr 3 min 10 sec) 
updateCurrDst(113017)
updateCurrDst(113074)
updateCurrDst(113153)
updateCurrDst(113301)
updateCurrDst(113410)
updateCurrDst(113454)
updateCurrDst(113506)
updateCurrDst(113544)
updateCurrDst(113601)
updateCurrDst(113644)
updateCurrDst(113699)
updateCurrDst(113785)
updateCurrDst(114135)
updateCurrDst(114144)
updateCurrDst(114221)
updateCurrDst(114250)
updateCurrDst(114255)
updateCurrDst(114308)
updateCurrDst(114436)
updateCurrDst(114531)
updateCurrDst(114600)
updateCurrDst(114646)
updateCurrDst(114846)
updateCurrDst(114945)
Heartbeat CPU 0 instructions: 61000000 cycles: 93667671 heartbeat IPC: 0.326619 cumulative IPC: 0.326603 (Simulation time: 0 hr 3 min 14 sec) 
updateCurrDst(115048)
updateCurrDst(115063)
updateCurrDst(115122)
updateCurrDst(115243)
updateCurrDst(115483)
updateCurrDst(115542)
updateCurrDst(115733)
updateCurrDst(116002)
updateCurrDst(116124)
updateCurrDst(116295)
updateCurrDst(116310)
updateCurrDst(116338)
updateCurrDst(116441)
updateCurrDst(116464)
updateCurrDst(116528)
updateCurrDst(116764)
updateCurrDst(116895)
Heartbeat CPU 0 instructions: 62000000 cycles: 96721160 heartbeat IPC: 0.327494 cumulative IPC: 0.326634 (Simulation time: 0 hr 3 min 17 sec) 
updateCurrDst(117285)
updateCurrDst(117354)
updateCurrDst(117370)
updateCurrDst(117447)
updateCurrDst(117472)
updateCurrDst(117529)
updateCurrDst(117561)
updateCurrDst(117562)
updateCurrDst(117810)
updateCurrDst(117971)
updateCurrDst(118015)
updateCurrDst(118175)
updateCurrDst(118178)
updateCurrDst(118264)
updateCurrDst(118275)
updateCurrDst(118501)
updateCurrDst(118580)
updateCurrDst(118593)
updateCurrDst(118765)
updateCurrDst(118799)
updateCurrDst(118800)
updateCurrDst(118826)
updateCurrDst(118840)
updateCurrDst(118969)
updateCurrDst(119036)
updateCurrDst(119056)
updateCurrDst(119172)
Heartbeat CPU 0 instructions: 63000000 cycles: 99780268 heartbeat IPC: 0.326893 cumulative IPC: 0.326643 (Simulation time: 0 hr 3 min 20 sec) 
updateCurrDst(119354)
updateCurrDst(119429)
updateCurrDst(119515)
updateCurrDst(119516)
updateCurrDst(119563)
updateCurrDst(119764)
updateCurrDst(119781)
updateCurrDst(120005)
updateCurrDst(120089)
updateCurrDst(120124)
updateCurrDst(120473)
updateCurrDst(120528)
updateCurrDst(120533)
updateCurrDst(120548)
updateCurrDst(120727)
updateCurrDst(120728)
updateCurrDst(120739)
updateCurrDst(120793)
updateCurrDst(120872)
updateCurrDst(120978)
updateCurrDst(120985)
updateCurrDst(121111)
updateCurrDst(121253)
Heartbeat CPU 0 instructions: 64000000 cycles: 102847790 heartbeat IPC: 0.325996 cumulative IPC: 0.326622 (Simulation time: 0 hr 3 min 24 sec) 
updateCurrDst(121347)
updateCurrDst(121451)
updateCurrDst(121482)
updateCurrDst(121526)
updateCurrDst(121612)
updateCurrDst(121690)
updateCurrDst(121699)
updateCurrDst(121729)
updateCurrDst(121793)
updateCurrDst(121815)
updateCurrDst(122078)
updateCurrDst(122178)
updateCurrDst(122188)
updateCurrDst(122286)
updateCurrDst(122433)
updateCurrDst(122518)
updateCurrDst(122644)
updateCurrDst(122767)
updateCurrDst(123036)
updateCurrDst(123120)
updateCurrDst(123207)
updateCurrDst(123364)
Heartbeat CPU 0 instructions: 65000000 cycles: 105906886 heartbeat IPC: 0.326894 cumulative IPC: 0.326631 (Simulation time: 0 hr 3 min 28 sec) 
updateCurrDst(123462)
updateCurrDst(123490)
updateCurrDst(123629)
updateCurrDst(123684)
updateCurrDst(123741)
updateCurrDst(123848)
updateCurrDst(123974)
updateCurrDst(123990)
updateCurrDst(124186)
updateCurrDst(124262)
updateCurrDst(124456)
updateCurrDst(124499)
updateCurrDst(124520)
updateCurrDst(124557)
updateCurrDst(124576)
updateCurrDst(124638)
updateCurrDst(124674)
updateCurrDst(124749)
updateCurrDst(124770)
updateCurrDst(125084)
updateCurrDst(125188)
updateCurrDst(125189)
updateCurrDst(125192)
updateCurrDst(125261)
updateCurrDst(125328)
updateCurrDst(125406)
updateCurrDst(125447)
Heartbeat CPU 0 instructions: 66000000 cycles: 108966039 heartbeat IPC: 0.326888 cumulative IPC: 0.326639 (Simulation time: 0 hr 3 min 32 sec) 
updateCurrDst(125573)
updateCurrDst(125614)
updateCurrDst(125642)
updateCurrDst(125867)
updateCurrDst(126030)
updateCurrDst(126156)
updateCurrDst(126203)
updateCurrDst(126249)
updateCurrDst(126284)
updateCurrDst(126394)
updateCurrDst(126603)
updateCurrDst(126732)
updateCurrDst(126778)
updateCurrDst(126962)
updateCurrDst(127006)
updateCurrDst(127019)
updateCurrDst(127052)
updateCurrDst(127182)
updateCurrDst(127276)
updateCurrDst(127377)
updateCurrDst(127400)
updateCurrDst(127427)
updateCurrDst(127472)
updateCurrDst(127480)
Heartbeat CPU 0 instructions: 67000002 cycles: 112027401 heartbeat IPC: 0.326653 cumulative IPC: 0.326639 (Simulation time: 0 hr 3 min 35 sec) 
updateCurrDst(127537)
updateCurrDst(127560)
updateCurrDst(127574)
updateCurrDst(127686)
updateCurrDst(127731)
updateCurrDst(127964)
updateCurrDst(128012)
updateCurrDst(128053)
updateCurrDst(128181)
updateCurrDst(128526)
updateCurrDst(128759)
updateCurrDst(128780)
updateCurrDst(128824)
updateCurrDst(128893)
updateCurrDst(128896)
updateCurrDst(129007)
updateCurrDst(129036)
updateCurrDst(129060)
updateCurrDst(129102)
updateCurrDst(129316)
updateCurrDst(129447)
updateCurrDst(129526)
*** Reached end of trace for Core: 0 Repeating trace: ./tracer/pull_u17_k3.xzafter: 68000000
Heartbeat CPU 0 instructions: 68000002 cycles: 115094530 heartbeat IPC: 0.326038 cumulative IPC: 0.326621 (Simulation time: 0 hr 3 min 38 sec) 
Finished CPU 0 instructions: 34000000 cycles: 104096098 cumulative IPC: 0.326621 (Simulation time: 0 hr 3 min 38 sec) 

ChampSim completed all CPUs

Region of Interest Statistics

CPU 0 cumulative IPC: 0.326621 instructions: 34000000 cycles: 104096098

Total ROB STALLS:                   12891701
STLB MISS ROB STALLS:                    414
L1D  LOAD MISS ROB STALLS:            428038  Translation MISS ROB STALLS:             0
L2C  LOAD MISS ROB STALLS:            110927  Translation MISS ROB STALLS:             0
LLC  LOAD MISS ROB STALLS:             39845  Translation MISS ROB STALLS:             0

ITLB TOTAL     ACCESS:           4598153  HIT:    4598153  MISS:          0  HIT %:        100  MISS %:          0   MPKI: 0
ITLB LOAD TRANSLATION ACCESS:    4598153  HIT:    4598153  MISS:          0  HIT %:        100  MISS %:          0   MPKI: 0
ITLB AVERAGE MISS LATENCY:          -nan cycles
ITLB RQ ACCESS:     5018418	FORWARD:           0	MERGED:       420265	TO_CACHE:    4598153

DTLB TOTAL     ACCESS:          10097631  HIT:    9863135  MISS:     234496  HIT %:    97.6777  MISS %:    2.32229   MPKI: 6.89694
DTLB LOAD TRANSLATION ACCESS:   10097631  HIT:    9863135  MISS:     234496  HIT %:    97.6777  MISS %:    2.32229   MPKI: 6.89694
DTLB AVERAGE MISS LATENCY:       9.44314 cycles
DTLB RQ ACCESS:    13583217	FORWARD:           0	MERGED:      3485586	TO_CACHE:   10097631

STLB TOTAL     ACCESS:            234496  HIT:     234082  MISS:        414  HIT %:    99.8235  MISS %:   0.176549   MPKI: 0.0121765
STLB LOAD TRANSLATION ACCESS:     234496  HIT:     234082  MISS:        414  HIT %:    99.8235  MISS %:   0.176549   MPKI: 0.0121765
STLB AVERAGE MISS LATENCY:           251 cycles
STLB RQ ACCESS:      234496	FORWARD:           0	MERGED:            0	TO_CACHE:     234496

PSCL5 TOTAL     ACCESS:               414  HIT:        414  MISS:          0  HIT %:        100  MISS %:          0   MPKI: 0
PSCL5 LOAD TRANSLATION ACCESS:        414  HIT:        414  MISS:          0  HIT %:        100  MISS %:          0   MPKI: 0

PSCL4 TOTAL     ACCESS:               414  HIT:        414  MISS:          0  HIT %:        100  MISS %:          0   MPKI: 0
PSCL4 LOAD TRANSLATION ACCESS:        414  HIT:        414  MISS:          0  HIT %:        100  MISS %:          0   MPKI: 0

PSCL3 TOTAL     ACCESS:               414  HIT:        414  MISS:          0  HIT %:        100  MISS %:          0   MPKI: 0
PSCL3 LOAD TRANSLATION ACCESS:        414  HIT:        414  MISS:          0  HIT %:        100  MISS %:          0   MPKI: 0

PSCL2 TOTAL     ACCESS:               414  HIT:        414  MISS:          0  HIT %:        100  MISS %:          0   MPKI: 0
PSCL2 LOAD TRANSLATION ACCESS:        414  HIT:        414  MISS:          0  HIT %:        100  MISS %:          0   MPKI: 0

L1D TOTAL     ACCESS:          13583221  HIT:   13155184  MISS:     428037  HIT %:    96.8488  MISS %:    3.15122   MPKI: 12.5893  USED:      72471  UNUSED:     355566
L1D LOAD      ACCESS:           5745035  HIT:    5316998  MISS:     428037  HIT %:    92.5494  MISS %:    7.45056   MPKI: 12.5893  USED:      72471  UNUSED:     355566
L1D RFO       ACCESS:           7838186  HIT:    7838186  MISS:          0  HIT %:        100  MISS %:          0   MPKI: 0
L1D PTL1 TRANSLATION ACCESS:          0  HIT:          0  MISS:          0  HIT %:       -nan  MISS %:       -nan   MPKI: 0
L1D PTL2 TRANSLATION ACCESS:          0  HIT:          0  MISS:          0  HIT %:       -nan  MISS %:       -nan   MPKI: 0
L1D PTL3 TRANSLATION ACCESS:          0  HIT:          0  MISS:          0  HIT %:       -nan  MISS %:       -nan   MPKI: 0
L1D PTL4 TRANSLATION ACCESS:          0  HIT:          0  MISS:          0  HIT %:       -nan  MISS %:       -nan   MPKI: 0
L1D PTL5 TRANSLATION ACCESS:          0  HIT:          0  MISS:          0  HIT %:       -nan  MISS %:       -nan   MPKI: 0
L1D TOTAL EVICTIONS:             428037  TRANSLATION EVICTIONS:          0  TRANSLATION EVICTING TRANSALTION:          0  TRANSLATION EVICTING LOAD:          0  LOAD EVICTING TRANSALTION:          0  LOAD EVICTING LOAD:      428037
L1D AVERAGE MISS LATENCY:        35.674 cycles  AVERAGE LOAD MISS LATENCY:        35.674 cycles  AVERAGE LOAD TRANSLATION MISS LATENCY:          -nan cycles
L1D RQ ACCESS:     8589536	FORWARD:           0	MERGED:      2039005	TO_CACHE:    5745037
L1D WQ ACCESS:     7846164	FORWARD:      805494	MERGED:         7984	TO_CACHE:    7838180

L1I TOTAL     ACCESS:           5018418  HIT:    5018418  MISS:          0  HIT %:        100  MISS %:          0   MPKI: 0
L1I LOAD      ACCESS:           5018418  HIT:    5018418  MISS:          0  HIT %:        100  MISS %:          0   MPKI: 0
L1I AVERAGE MISS LATENCY:          -nan cycles
L1I RQ ACCESS:     7932483	FORWARD:           0	MERGED:      2914065	TO_CACHE:    5018418

L2C TOTAL     ACCESS:            432456  HIT:     321530  MISS:     110926  HIT %:    74.3498  MISS %:    25.6502   MPKI: 3.26253  USED:      57372  UNUSED:      53554
L2C LOAD      ACCESS:            428037  HIT:     317111  MISS:     110926  HIT %:     74.085  MISS %:     25.915   MPKI: 3.26253  USED:      57372  UNUSED:      53554
L2C WRITEBACK ACCESS:              4419  HIT:       4419  MISS:          0  HIT %:        100  MISS %:          0   MPKI: 0
L2C PTL1 TRANSLATION ACCESS:          0  HIT:          0  MISS:          0  HIT %:       -nan  MISS %:       -nan   MPKI: 0
L2C PTL2 TRANSLATION ACCESS:          0  HIT:          0  MISS:          0  HIT %:       -nan  MISS %:       -nan   MPKI: 0
L2C PTL3 TRANSLATION ACCESS:          0  HIT:          0  MISS:          0  HIT %:       -nan  MISS %:       -nan   MPKI: 0
L2C PTL4 TRANSLATION ACCESS:          0  HIT:          0  MISS:          0  HIT %:       -nan  MISS %:       -nan   MPKI: 0
L2C PTL5 TRANSLATION ACCESS:          0  HIT:          0  MISS:          0  HIT %:       -nan  MISS %:       -nan   MPKI: 0
L2C TOTAL EVICTIONS:             110926  TRANSLATION EVICTIONS:          0  TRANSLATION EVICTING TRANSALTION:          0  TRANSLATION EVICTING LOAD:          0  LOAD EVICTING TRANSALTION:          0  LOAD EVICTING LOAD:      110926
L2C AVERAGE MISS LATENCY:        79.776 cycles  AVERAGE LOAD MISS LATENCY:        79.776 cycles  AVERAGE LOAD TRANSLATION MISS LATENCY:          -nan cycles
L2C RQ ACCESS:      428039	FORWARD:           0	MERGED:            0	TO_CACHE:     428039
L2C WQ ACCESS:        4419	FORWARD:           0	MERGED:            0	TO_CACHE:       4419

LLC TOTAL     ACCESS:            115361  HIT:      75516  MISS:      39845  HIT %:    65.4606  MISS %:    34.5394   MPKI: 1.17191  USED:       1254  UNUSED:      38591
LLC LOAD      ACCESS:            110926  HIT:      71081  MISS:      39845  HIT %:    64.0797  MISS %:    35.9203   MPKI: 1.17191  USED:          0  UNUSED:      38591
LLC WRITEBACK ACCESS:              4435  HIT:       4435  MISS:          0  HIT %:        100  MISS %:          0   MPKI: 0
LLC PTL1 TRANSLATION ACCESS:          0  HIT:          0  MISS:          0  HIT %:       -nan  MISS %:       -nan   MPKI: 0
LLC PTL2 TRANSLATION ACCESS:          0  HIT:          0  MISS:          0  HIT %:       -nan  MISS %:       -nan   MPKI: 0
LLC PTL3 TRANSLATION ACCESS:          0  HIT:          0  MISS:          0  HIT %:       -nan  MISS %:       -nan   MPKI: 0
LLC PTL4 TRANSLATION ACCESS:          0  HIT:          0  MISS:          0  HIT %:       -nan  MISS %:       -nan   MPKI: 0
LLC PTL5 TRANSLATION ACCESS:          0  HIT:          0  MISS:          0  HIT %:       -nan  MISS %:       -nan   MPKI: 0
LLC TOTAL EVICTIONS:              39845  TRANSLATION EVICTIONS:          0  TRANSLATION EVICTING TRANSALTION:          0  TRANSLATION EVICTING LOAD:          0  LOAD EVICTING TRANSALTION:          0  LOAD EVICTING LOAD:       38591
LLC AVERAGE MISS LATENCY:       138.573 cycles  AVERAGE LOAD MISS LATENCY:       138.573 cycles  AVERAGE LOAD TRANSLATION MISS LATENCY:          -nan cycles
LLC RQ ACCESS:      110928	FORWARD:           0	MERGED:            0	TO_CACHE:     110928
LLC WQ ACCESS:        4435	FORWARD:           0	MERGED:            0	TO_CACHE:       4435


RAW hits: 5830277
Loads Generated: 14419814
Loads sent to L1D: 8589536
Stores Generated: 7846161
Stores sent to L1D: 7846164
Major fault: 0 Minor fault: 1613
Allocated PAGES: 1613
IRREG DATA L1D ACCESS: 777648
L2C ACCESSES: 712046
L2C MISSES: 134767

DRAM Statistics
 CHANNEL 0
 RQ ROW_BUFFER_HIT:      12522  ROW_BUFFER_MISS:      27737
 DBUS_CONGESTED:          0
 WQ ROW_BUFFER_HIT:          1  ROW_BUFFER_MISS:       4334  FULL:          0

 AVG_CONGESTED_CYCLE: -

CPU 0 Branch Prediction Accuracy: 98.3165% MPKI: 2.06494 Average ROB Occupancy at Mispredict: 17.3444
Branch types
NOT_BRANCH: 29829226 87.733%
BRANCH_DIRECT_JUMP: 0 0%
BRANCH_INDIRECT: 494726 1.45508%
BRANCH_CONDITIONAL: 0 0%
BRANCH_DIRECT_CALL: 70708 0.207965%
BRANCH_INDIRECT_CALL: 1413704 4.15795%
BRANCH_RETURN: 1484414 4.36592%
BRANCH_OTHER: 706853 2.07898%

DRAM PAGES: 1048576
Allocated PAGES: 1613
